124
Lattice="17.732647945 0.0 0.0 0.0 17.732647945 0.0 0.0 0.0 17.732647945" Properties=species:S:1:pos:R:3:Z:I:1:forces:R:3 energy=-383.367873015 pbc="F F F"
Cu     10.04122928       7.22881275      15.06039179       29       0.00005563      -0.00187427       0.00036558 
Cu     10.43620609       9.62183403      15.77800334       29       0.00033522       0.00000056       0.00180924 
Cu      7.66535612       6.50666829      14.51537718       29       0.00031438      -0.00128849       0.00009772 
Cu      8.06973204       8.91524049      15.23283001       29       0.00153218       0.00221480       0.00057385 
Cu     11.70711530       6.07966339      13.47687402       29       0.00127828       0.00005796      -0.00314532 
Cu      8.93432159      11.22293685      14.51143881       29       0.00006620       0.00054540       0.00201217 
Cu      6.52341035      10.51567802      13.93874227       29       0.00054973      -0.00038248       0.00146463 
Cu      9.62760519       4.84947128      14.25734130       29      -0.00074011      -0.00033430      -0.00089889 
Cu      7.41126759      12.80350430      13.16039113       29       0.00112365       0.00021100       0.00154500 
Cu      5.74089064       8.18614685      14.59052401       29       0.00061638      -0.00042848      -0.00073192 
Cu     12.10386370       8.51315076      14.22423241       29       0.00091710      -0.00021636      -0.00207388 
Cu     11.42079580      10.96984011      13.88282247       29       0.00049533       0.00035103      -0.00144889 
Cu     11.21394721       3.73135584      12.61721657       29      -0.00086945       0.00031725      -0.00036045 
Cu      7.41490682       8.37672268      12.86517381       29      -0.00091400       0.00061052      -0.00112527 
Cu      9.78638975       9.10865559      13.45286703       29       0.00735928      -0.00123034       0.00536486 
Cu      6.71900721       6.77697712       1.95464461       29      -0.00038846       0.00012361       0.00045409 
Cu      9.07490045       7.47584495       2.53050229       29       0.00023970      -0.00036463      -0.00002097 
Cu      7.13553075       9.15415312       2.70338198       29      -0.00031356      -0.00248474      -0.00042968 
Cu     11.45481498       8.17819268       3.18626231       29       0.00018383       0.00021680       0.00111287 
Cu      9.52249987       9.88393982       3.30077557       29       0.00241531      -0.00198384      -0.00079745 
Cu      8.22556500       5.17348174       3.22124004       29       0.00073563      -0.00077251      -0.00152292 
Cu      7.57032064      11.54544925       3.53708331       29      -0.00044205       0.00000945       0.00078110 
Cu      5.05159450       7.90568466       3.49820711       29       0.00055732       0.00072089      -0.00050625 
Cu     13.77331446       8.87323397       3.90291173       29       0.00026109      -0.00052451      -0.00294662 
Cu     11.89310735      10.57086842       4.02208223       29      -0.00030071      -0.00109908      -0.00064749 
Cu     10.61976760       5.84828795       3.83452382       29      -0.00092505      -0.00002386       0.00070028 
Cu      5.71789630       5.40554386       3.80569642       29       0.00082257      -0.00063146       0.00089364 
Cu      9.95143186      12.25699600       4.19609511       29      -0.00065486      -0.00020325       0.00188306 
Cu      8.01098929      13.87076330       4.42329220       29      -0.00169990       0.00152804      -0.00056788 
Cu      5.45568027      10.31792928       4.29109436       29      -0.00211012      -0.00062426       0.00099343 
Cu      7.30164734       7.21807210       4.31607381       29      -0.00308588       0.00116190      -0.00040921 
Cu     12.95908625       6.56306466       4.56506291       29      -0.00062224       0.00063523       0.00051510 
Cu      9.72891573       3.60996619       4.58170108       29      -0.00193188      -0.00018296      -0.00031188 
Cu      9.65768966       7.91424740       4.89631891       29       0.00220008      -0.00163638      -0.00240145 
Cu      7.72303377       9.58460555       5.07371391       29      -0.00127807       0.00222704       0.00101054 
Cu      5.91606866      12.67150198       5.19018463       29      -0.00111841      -0.00114745       0.00007466 
Cu      3.42425759       9.06475034       5.10545278       29      -0.00095135       0.00001506       0.00077905 
Cu      7.23359851       3.79691735       5.09252308       29      -0.00085377       0.00001036      -0.00028667 
Cu     12.08065967       4.26116307       5.28910849       29      -0.00034909       0.00005498       0.00062547 
Cu      4.02656555       6.52742765       5.35273684       29       0.00087862       0.00083921       0.00018408 
Cu     11.99114056       8.61150290       5.59020550       29      -0.00031981       0.00186864      -0.00234926 
Cu     10.10099098      10.30154972       5.72561287       29       0.00123239      -0.00035830      -0.00174465 
Cu      8.80024180       5.61548122       5.62404354       29       0.00178478      -0.00154455      -0.00149601 
Cu     13.67540733      10.46196877       5.86806610       29      -0.00231053      -0.00134513      -0.00023989 
Cu      8.16881598      11.92641312       5.93609445       29       0.00153569      -0.00184187       0.00251817 
Cu     11.77061577      12.19728301       6.00990407       29       0.00019141       0.00066797      -0.00002403 
Cu      5.61853024       8.32650686       5.90647378       29       0.00123932      -0.00133095       0.00024281 
Cu      3.83970860      11.41193081       6.00539330       29       0.00069455       0.00065827      -0.00033531 
Cu      9.78843307      13.83424294       6.21968105       29      -0.00140389      -0.00027221       0.00091012 
Cu     14.34686344       7.99955840       6.20358517       29       0.00085381       0.00030526       0.00128209 
Cu      6.25865802       5.79849036       6.20414393       29      -0.00170502       0.00259998      -0.00033807 
Cu     11.14971526       6.28607567       6.27667502       29      -0.00125813       0.00208694      -0.00213993 
Cu      7.30954607      14.09640519       6.84501666       29      -0.00212225       0.00077491       0.00202581 
Cu      6.06735201      10.69606354       6.72297194       29      -0.00144423       0.00010614      -0.00142928 
Cu      7.86822863       7.63868824       6.64604095       29      -0.00163110      -0.00082506      -0.00068087 
Cu     13.53520725       5.65967415       6.89571700       29       0.00039002       0.00035342       0.00144871 
Cu      2.45959792       7.66263513       6.89411198       29       0.00115430       0.00049714      -0.00252308 
Cu     10.25636283       3.93846043       7.00016094       29      -0.00023180       0.00174351       0.00172663 
Cu     10.21008556       8.33708444       7.26346146       29       0.00255835       0.00143476       0.00046839 
Cu      8.31049807       9.98651707       7.44463633       29       0.00070069      -0.00037111       0.00122287 
Cu     11.87821905      10.19358864       7.55813974       29       0.00088364      -0.00101719      -0.00118489 
Cu      5.19144737      12.89723588       7.63936115       29      -0.00065259      -0.00126756      -0.00038816 
Cu      3.97270118       9.45229675       7.56445339       29       0.00011200      -0.00348879      -0.00171555 
Cu      9.94204242      11.87574091       7.73302503       29      -0.00166432      -0.00032304       0.00424257 
Cu      7.77052703       4.13455291       7.55150837       29      -0.00124803       0.00045256       0.00059888 
Cu     13.51267935      12.04204061       7.89237812       29       0.00191084      -0.00002996       0.00030009 
Cu     12.61195670       3.41718604       7.64154911       29       0.00092979      -0.00029720      -0.00109697 
Cu     11.56808254      13.73003678       8.06979959       29       0.00142562      -0.00064982       0.00058058 
Cu     12.54435271       7.74199304       7.89644454       29      -0.00144303      -0.00038103      -0.00088857 
Cu      4.57884813       6.90337371       7.85235804       29      -0.00038679       0.00038384      -0.00047221 
Cu      9.33883221       6.01461600       7.99155515       29      -0.00179420      -0.00080562      -0.00207017 
Cu     14.24978457       9.59626287       8.22247708       29       0.00053628       0.00038934      -0.00034281 
Cu      7.47189919      12.12780443       8.36507248       29       0.00074718       0.00012746       0.00047241 
Cu      6.22416203       8.71417194       8.26336991       29       0.00112088      -0.00018595      -0.00064144 
Cu      5.30406534       4.47517850       8.14321737       29       0.00046335      -0.00080638      -0.00103733 
Cu      3.17600432      11.62501648       8.46385250       29      -0.00333621      -0.00050345      -0.00134007 
Cu      9.09391367      14.05685627       8.69661502       29      -0.00050930      -0.00210933       0.00032806 
Cu     14.85306291       7.11951457       8.56752799       29      -0.00064604      -0.00134273       0.00059284 
Cu      6.89105976       6.27107373       8.55627191       29       0.00089657      -0.00170958       0.00159917 
Cu     11.65222180       5.43311442       8.60852869       29       0.00220312       0.00092607      -0.00070514 
Cu      8.46135984       8.07106442       8.91425644       29       0.00223633       0.00112621       0.00277264 
Cu      5.39867352      10.85711625       9.16892942       29       0.00282946      -0.00152822      -0.00189403 
Cu      6.61115682      14.24796180       9.32329557       29       0.00236991      -0.00070293       0.00051638 
Cu     10.06151329       9.89590868       9.22812395       29      -0.00102114       0.00204162       0.00006344 
Cu     13.98395711       4.80905992       9.28135183       29       0.00026609       0.00245182       0.00049014 
Cu     11.67853602      11.72598745       9.56767797       29       0.00080800      -0.00159094       0.00077065 
Cu     10.70356592       7.49059738       9.55966675       29      -0.00137833      -0.00095624       0.00245336 
Cu      9.59961515       4.03044003       9.49163798       29      -0.00197414      -0.00009874      -0.00057705 
Cu     13.29413007      13.55898868       9.90946830       29       0.00103096       0.00173498       0.00045410 
Cu      7.62396932      10.11557610       9.86567713       29      -0.00177279       0.00199446      -0.00068405 
Cu     12.38275834       9.31716954       9.91309610       29       0.00181122       0.00137493       0.00130028 
Cu      4.36783581       8.52072394       9.91842257       29       0.00111475       0.00058786      -0.00037708 
Cu      4.52828691      13.00622765      10.12564432       29      -0.00269032      -0.00029541      -0.00012884 
Cu      9.23903658      12.01970278      10.20294764       29      -0.00004741       0.00034222       0.00096061 
Cu     14.01889886      11.15957215      10.25855945       29       0.00237913      -0.00120650       0.00102347 
Cu      7.04993678       4.31262167      10.06753594       29      -0.00139570       0.00093635       0.00019149 
Cu     12.98370608       6.88143865      10.23221870       29       0.00099427      -0.00007642      -0.00004526 
Cu     11.98150178       3.51015980      10.15603839       29      -0.00238792      -0.00075577       0.00162748 
Cu     10.86342462      13.87707613      10.55101814       29       0.00019114      -0.00015305      -0.00053432 
Cu      5.08751877       6.00526767      10.24805363       29      -0.00063307       0.00162715      -0.00005373 
Cu      8.63083037       6.17629623      10.40142370       29      -0.00001397      -0.00023681       0.00123440 
Cu     14.68622446       8.69710809      10.59496101       29       0.00200487      -0.00007244       0.00020692 
Cu      6.71299298       7.82928660      10.56403885       29       0.00061980      -0.00009977      -0.00149616 
Cu      6.79154429      12.21181806      10.80195655       29       0.00178997      -0.00062552      -0.00204818 
Cu      3.60383861      10.76513142      10.83772217       29      -0.00218438      -0.00162138       0.00040110 
Cu     15.27305003       6.25568736      10.90926710       29      -0.00033217       0.00095460       0.00121127 
Cu      8.38184396      14.12971683      11.17865007       29      -0.00232883      -0.00048588      -0.00016669 
Cu      9.12913863       8.58650928      11.15025561       29       0.00120068      -0.00095079      -0.00244687 
Cu     10.94479767       5.59146356      11.08316266       29       0.00055899       0.00115472       0.00080936 
Cu     10.75778607      10.44784167      11.54928251       29       0.00166031      -0.00023644       0.00072267 
Cu      5.82843868       9.92754691      11.58889557       29       0.00316659       0.00066594       0.00093317 
Cu      5.93287530      14.31546191      11.76675937       29       0.00050428       0.00143211      -0.00049732 
Cu     12.38332622      12.29621856      11.90363594       29       0.00318321       0.00127948      -0.00026802 
Cu     13.27830862       4.96752672      11.78362150       29      -0.00038841       0.00075140      -0.00046484 
Cu     11.43243518       7.99769254      11.88718627       29       0.00119135      -0.00145920       0.00264361 
Cu      8.86475133       4.27743385      11.94543034       29      -0.00214326       0.00086365       0.00021260 
Cu      8.27883452      10.69455409      12.17602911       29      -0.00787307       0.00173266      -0.00536492 
Cu     13.11284225       9.85741665      12.28074658       29      -0.00031281      -0.00073837       0.00042759 
Cu      6.88850065       5.91679998      12.18290735       29      -0.00024260       0.00001375      -0.00092963 
Cu      4.98089802       7.64480706      12.28605853       29      -0.00106950       0.00190239      -0.00083732 
Cu      9.91233162      12.60084935      12.57578999       29      -0.00121554       0.00310337       0.00059484 
Cu      5.02509785      12.08094546      12.51249648       29      -0.00166243      -0.00038180      -0.00087987 
Cu     13.73617291       7.37668627      12.58053579       29      -0.00150613       0.00057771       0.00070394 
Cu      9.35746465       6.70233703      12.70353086       29      -0.00018327      -0.00136356      -0.00101527 
