124
Lattice="18.0440896326 0.0 0.0 0.0 18.0440896326 0.0 0.0 0.0 18.0440896326" Properties=species:S:1:pos:R:3:Z:I:1:forces:R:3 energy=-383.335435476 pbc="F F F"
Cu      9.26676834       7.70459012      15.30586968       29      -0.00110012       0.00041190       0.00174001 
Cu     10.55601564       9.92113405      15.14199092       29      -0.00077716      -0.00073422       0.00181036 
Cu     11.80930263      12.10771300      14.89401759       29      -0.00084338      -0.00101477       0.00029599 
Cu      6.72094653       7.68942894      14.98244219       29      -0.00106426      -0.00077115      -0.00121188 
Cu      7.99900320       9.91198347      14.87995054       29      -0.00053601       0.00008686       0.00131726 
Cu      9.29081549      12.11989643      14.62812267       29      -0.00012213       0.00007593       0.00111265 
Cu     10.24129408       5.56563988      14.25699422       29       0.00086719       0.00024167      -0.00162847 
Cu     11.56414931       7.76386328      14.15146290       29      -0.00102641      -0.00123477       0.00009403 
Cu      5.46590170       9.87106164      14.47197480       29      -0.00049697       0.00079298       0.00101441 
Cu     12.82100472       9.99884741      13.91281470       29       0.00084627       0.00016839       0.00017924 
Cu      6.74523131      12.08717767      14.28134267       29       0.00006939       0.00022409       0.00097436 
Cu      6.10337169       5.53296146      13.72259590       29       0.00044116       0.00140875       0.00067960 
Cu     12.49248267       5.64005572      13.03307421       29      -0.00109359       0.00127879      -0.00180962 
Cu      8.29823392       4.21181904      13.26728383       29       0.00064663       0.00063843      -0.00019623 
Cu      8.23688669       6.67675051      13.28816221       29      -0.00292423       0.00130487       0.00170163 
Cu     13.78183409       7.85990824      12.85460920       29       0.00050066       0.00004850       0.00012433 
Cu      9.51779639       8.86510361      13.14460894       29      -0.00041292       0.00075821       0.00084198 
Cu     10.77732631      13.55162066      13.08244339       29       0.00058898      -0.00021437      -0.00064312 
Cu     10.77910764      11.05331615      12.92015441       29      -0.00278379      -0.00153533      -0.00051522 
Cu      4.79865815       7.69840486      13.28164279       29       0.00009555      -0.00087110      -0.00033486 
Cu     12.96571211      12.24789837      12.64875191       29      -0.00070430      -0.00089679       0.00115672 
Cu      6.97958578       8.84273458      12.81361831       29      -0.00043338      -0.00140531       0.00247625 
Cu      8.21880865      13.57887174      12.79177928       29       0.00090928      -0.00015546       0.00043304 
Cu      8.25994409      11.05152415      12.63351979       29       0.00127838       0.00152748       0.00020898 
Cu      3.59739695       9.89271275      12.70473440       29       0.00006638      -0.00143809      -0.00048176 
Cu     10.57537991       4.21986862      12.08245188       29       0.00179835      -0.00059573       0.00075150 
Cu     10.48274242       6.73191446      12.09576248       29       0.00121550      -0.00075453       0.00111335 
Cu     11.77184852       8.94105837      11.92016356       29      -0.00150759       0.00084564      -0.00231551 
Cu      5.68309203      13.49186435      12.40351749       29       0.00024075      -0.00052506      -0.00088352 
Cu      5.74658620      11.00741005      12.27528972       29      -0.00298609       0.00161446       0.00235023 
Cu     14.00031370      10.11732347      11.63292051       29      -0.00154211      -0.00039444      -0.00198474 
Cu      4.24895755       5.58072622      11.98746354       29       0.00085191       0.00099494       0.00049036 
Cu      6.39900321       4.19490530      11.58301894       29       0.00067604       0.00131289       0.00111300 
Cu      6.35885252       6.69303496      11.52905483       29      -0.00432124      -0.00071386       0.00284775 
Cu     12.70749401       6.82448759      10.86308185       29      -0.00068584      -0.00078078       0.00165628 
Cu     12.78898716       4.36203267      10.80505345       29       0.00082116       0.00022332       0.00044859 
Cu      8.62280790       2.95619833      11.07243223       29       0.00016049       0.00053920       0.00091144 
Cu      9.70946844      14.94068940      11.19946446       29       0.00147992       0.00005096       0.00120171 
Cu      8.53352569       5.38515097      11.08514944       29       0.00086790      -0.00141834       0.00003331 
Cu      8.48102143       7.83306904      11.12203097       29      -0.00050447       0.00133224      -0.00017316 
Cu      9.73844756      12.47652811      11.09349848       29      -0.00014131      -0.00201869       0.00098853 
Cu      3.00313393       7.74654426      11.48445500       29       0.00162425      -0.00034490      -0.00245782 
Cu      9.74779117       9.99940078      10.95126141       29       0.00255509       0.00013857       0.00217260 
Cu     14.89653902       7.96670890      10.54432242       29      -0.00046230       0.00000959       0.00115432 
Cu      3.73670221      12.14624625      11.41146330       29       0.00217766       0.00019646       0.00080972 
Cu     11.93439248      13.70767928      10.79277881       29       0.00060858       0.00059824       0.00012564 
Cu     11.91735928      11.18059837      10.66513117       29      -0.00171176      -0.00359362       0.00038048 
Cu      5.11900384       8.84830959      11.02573816       29      -0.00152731      -0.00071529       0.00169867 
Cu     14.07015450      12.34176318      10.33408828       29       0.00220819      -0.00017442      -0.00110606 
Cu      7.15929462      14.91466474      10.86458818       29      -0.00046235       0.00013332       0.00001705 
Cu      7.19684767      12.44537280      10.75971411       29       0.00175581      -0.00003675       0.00052851 
Cu      7.25429492       9.96613865      10.62317518       29      -0.00070403      -0.00115832      -0.00077068 
Cu     10.68467940       7.89808271       9.92438462       29      -0.00111671       0.00301586      -0.00053923 
Cu     10.75848961       5.44671111       9.86539943       29       0.00038040       0.00006115      -0.00050364 
Cu     10.85104281       3.01225840       9.81503256       29       0.00034371       0.00104822      -0.00005335 
Cu     12.87838866       9.04497662       9.62217300       29      -0.00079929       0.00000114      -0.00061288 
Cu      3.05731718      10.00866498      10.22400268       29      -0.00084916      -0.00017161       0.00113036 
Cu     14.31720693       5.80763637       9.27887660       29      -0.00027735      -0.00022615      -0.00034994 
Cu     15.04095570      10.19754238       9.28788499       29      -0.00022303      -0.00080234       0.00004133 
Cu      5.16364365      13.63393652       9.88103535       29      -0.00112915      -0.00018659       0.00064931 
Cu      4.45501634       6.67887029       9.75247115       29      -0.00157363      -0.00180928       0.00018395 
Cu      5.25737597      11.08447237       9.75194237       29      -0.00016142       0.00135046       0.00118142 
Cu      6.57618550       5.29722686       9.31984723       29       0.00246830       0.00010654      -0.00033819 
Cu      6.59582121       7.81159491       9.34316202       29       0.00196924       0.00214007      -0.00261257 
Cu      8.67612046      13.83516180       9.22446636       29      -0.00114183      -0.00172126      -0.00177016 
Cu      8.69300085      11.36224813       9.11469859       29      -0.00116248       0.00146126      -0.00346704 
Cu      8.70682118       8.94841730       9.01805840       29       0.00032405       0.00252537       0.00156398 
Cu      8.71452150       6.53600512       8.92097829       29      -0.00055528      -0.00010584       0.00075938 
Cu     10.82940832      15.03807898       8.89118941       29       0.00102394       0.00031476      -0.00086001 
Cu      8.78265039       4.06604842       8.84151166       29       0.00153444      -0.00006644      -0.00010510 
Cu     10.84936469      12.57254882       8.79655703       29       0.00020164       0.00103719      -0.00050002 
Cu     10.83266145      10.09653523       8.70111717       29      -0.00276310      -0.00031708      -0.00068529 
Cu     13.00038124      13.74439446       8.45764259       29       0.00075090       0.00008171       0.00094604 
Cu     12.99833055      11.26478002       8.36992073       29      -0.00150306      -0.00037945      -0.00060158 
Cu     12.29627358       6.89529568       8.35161687       29       0.00134539      -0.00037751      -0.00064810 
Cu     12.43863002       4.38762711       8.27792664       29      -0.00086627       0.00113187      -0.00133902 
Cu      3.29030409      12.23266776       8.90333997       29       0.00077667      -0.00084853       0.00000230 
Cu     14.53693519       8.03458058       7.99925084       29      -0.00014408      -0.00145966      -0.00223552 
Cu      4.50410867       8.90528923       8.47508758       29      -0.00028095       0.00006186       0.00204113 
Cu      6.68711905      14.97760527       8.32348706       29      -0.00114812      -0.00136748      -0.00117609 
Cu      6.70855516      12.49290733       8.21808296       29       0.00002955      -0.00068157      -0.00094759 
Cu      6.72789646       9.99395565       8.11192421       29      -0.00082502       0.00100449       0.00113927 
Cu     10.22918654       7.98183138       7.44905560       29      -0.00135443       0.00269348       0.00053460 
Cu     10.34810613       5.54292281       7.37002156       29       0.00058397      -0.00254115      -0.00033250 
Cu     10.49870395       3.10904089       7.29532268       29      -0.00222252       0.00054405       0.00091477 
Cu     12.43403225       9.12702701       7.09478139       29       0.00015717       0.00091927      -0.00010762 
Cu      5.54693317       6.74868620       7.37249448       29       0.00136757      -0.00009900       0.00023878 
Cu     13.89402446       5.89238591       6.74444889       29      -0.00024334       0.00029600      -0.00079783 
Cu     14.59454460      10.28419539       6.75073133       29       0.00033506      -0.00038443      -0.00009786 
Cu      7.70522889       7.91633830       7.06458763       29      -0.00163981      -0.00076856      -0.00134404 
Cu      8.98089955      15.08789130       7.10948321       29      -0.00012590       0.00106370      -0.00178560 
Cu      9.00782774      12.61478429       7.01410518       29       0.00068348      -0.00140268      -0.00061906 
Cu      9.00432560      10.11199078       6.95057788       29       0.00192319       0.00082392       0.00204773 
Cu      4.74606990      13.63364621       7.33186235       29       0.00008596      -0.00023178      -0.00142470 
Cu      7.74815539       5.40789214       6.91979939       29       0.00058327       0.00001627      -0.00006610 
Cu      4.72890449      11.12103708       7.19156701       29      -0.00086210       0.00003714       0.00079105 
Cu     11.19226055      13.85055371       6.63845582       29       0.00075248      -0.00049093       0.00091317 
Cu     11.17622654      11.31407191       6.58311592       29       0.00006973      -0.00000405      -0.00076549 
Cu     13.33277632      12.47824750       6.23787266       29      -0.00009262      -0.00014296      -0.00140090 
Cu     11.80883561       7.00814095       5.87234844       29       0.00099669      -0.00646971      -0.00719529 
Cu     11.97688965       4.52622800       5.75359805       29       0.00030591       0.00054015      -0.00025239 
Cu     14.02368745       8.13373219       5.47544896       29       0.00050726       0.00079625      -0.00046541 
Cu      7.05730569      11.26736121       6.03047221       29       0.00147419      -0.00124559       0.00179621 
Cu      7.01525980      13.82054389       6.07203429       29      -0.00150858       0.00238478      -0.00091530 
Cu      8.36958993      10.36134976       2.80584907       29      -0.00066283       0.00096786      -0.00034444 
Cu      6.08237643      10.36602174       3.96208123       29       0.00102339       0.00082777      -0.00001302 
Cu      9.66187548       8.14976883       3.25027699       29      -0.00007491      -0.00060681       0.00003591 
Cu      9.64036341      12.53410342       2.73821996       29       0.00107756       0.00021032      -0.00155250 
Cu      7.37863872      12.52507408       3.88210880       29      -0.00027523      -0.00025177      -0.00014239 
Cu     10.91797761      10.37810519       3.16491255       29      -0.00017763       0.00006543      -0.00057172 
Cu      9.49147496       4.43493718       5.35030534       29       0.00057704      -0.00035417      -0.00031145 
Cu      6.75803611       6.90234085       5.05708800       29       0.00101720       0.00190677       0.00109242 
Cu     11.49715928      12.52851303       4.44850821       29       0.00128223      -0.00056376      -0.00115515 
Cu      5.13015362      12.44686938       5.11097304       29      -0.00098216       0.00034473       0.00058516 
Cu     13.38856132       6.01200961       4.26295512       29       0.00084557       0.00104555       0.00049928 
Cu      9.32722541      11.32385835       4.86217290       29       0.00065595      -0.00077867       0.00227302 
Cu     12.80560414      10.34327608       4.90618125       29       0.00069911       0.00163851      -0.00148538 
Cu      9.26976704       6.91343383       5.41658016       29       0.00056667      -0.00038861      -0.00006165 
Cu      9.32175333      13.84468707       4.88497600       29       0.00136710      -0.00266827      -0.00061331 
Cu     10.90743260       5.94456023       3.83932179       29       0.00198940      -0.00052959       0.00076110 
Cu      5.67422428       9.01760944       6.07522169       29       0.00008691      -0.00031622      -0.00085891 
Cu     10.59067446       9.16448117       5.30792548       29       0.00062333       0.00031261      -0.00080244 
Cu      8.01050933       9.10429847       4.90408400       29      -0.00096058      -0.00042002      -0.00135785 
Cu     12.18440894       8.17234357       3.67910580       29       0.00044050       0.00494241       0.00362276 
