124
Lattice="17.3602789509 0.0 0.0 0.0 17.3602789509 0.0 0.0 0.0 17.3602789509" Properties=species:S:1:pos:R:3:Z:I:1:forces:R:3 energy=-383.704582399 pbc="F F F"
Cu      5.59625124       8.22505300      14.46238600       29      -0.00025033      -0.00043464       0.00347731 
Cu      8.09659216       8.81589073      14.54975392       29      -0.00058209      -0.00077197       0.00009083 
Cu      7.34961327       6.36057411      14.72845505       29       0.00124572       0.00282029       0.00133339 
Cu     10.59845147       9.37968994      14.49287174       29      -0.00093886       0.00206752       0.00101845 
Cu      8.85161448      11.27045461      14.19190188       29      -0.00029195       0.00164921      -0.00143527 
Cu      9.84774388       6.93205256      14.73550180       29       0.00086365       0.00151639       0.00378426 
Cu      3.88985907      10.06463026      14.10759299       29      -0.00077593      -0.00053122      -0.00241001 
Cu      5.27038828       5.96375149      13.27645604       29       0.00110089       0.00315201       0.00143647 
Cu      3.55271303       7.84504750      12.93957484       29       0.00358066       0.00205513      -0.00144605 
Cu     11.31332541      11.79495035      14.16808328       29       0.00005479       0.00088565      -0.00325958 
Cu     12.62249785       9.93363611      13.00348884       29       0.00108329       0.00173270       0.00167392 
Cu      6.34314306      10.67403462      14.19442088       29       0.00095512       0.00015580      -0.00474525 
Cu      8.22163790      14.11861191      10.84129508       29       0.00235166       0.00150996       0.00654854 
Cu      8.81785449       5.71556930      12.82388082       29      -0.00146930       0.00168347       0.00178365 
Cu     11.90770483       7.49380717      13.30546137       29       0.00457212      -0.00157730       0.00146471 
Cu      7.07923964       7.55511088      12.58490365       29      -0.00151291       0.00006820       0.00251290 
Cu      7.27058551      12.46177647      12.57534554       29       0.00426037       0.00234467      -0.00181874 
Cu     11.11595016       5.05764555      13.51346739       29      -0.00089337       0.00098945       0.00097906 
Cu      4.77480836      11.82362287      12.51422476       29       0.00071339      -0.00151574       0.00405855 
Cu      7.05398288       4.13208144      13.47689332       29      -0.00295259       0.00342625       0.00023510 
Cu      7.82264479       9.98701578      12.33116187       29       0.00239831      -0.00228696       0.00109639 
Cu      9.57007385       8.13341867      12.59982505       29       0.00440647      -0.00104351       0.00086636 
Cu      3.04600493      10.08639688      11.71908078       29      -0.00002219       0.00133117       0.00110154 
Cu      3.29123102       5.62939463      11.71731090       29       0.00322286      -0.00019747      -0.00237193 
Cu      5.71029999      13.55185239      10.84491176       29       0.00564912       0.00171065       0.00249814 
Cu      9.40413351       3.32169496      12.71997113       29      -0.00304713       0.00373468      -0.00112168 
Cu     10.31117676      10.55139803      12.30124282       29      -0.00780328      -0.00185613       0.00178128 
Cu      9.81046155      13.03604865      12.49564697       29       0.07072719      -0.19945805       0.22542790 
Cu     11.56637956       8.70757767      11.08938173       29       0.16184251      -0.04043033       0.18598903 
Cu      5.37036875       9.39400513      12.25275731       29      -0.00210829       0.00420262      -0.00217858 
Cu     10.41774329       5.60840041       3.10891833       29       0.00049056      -0.00156624       0.00056384 
Cu      7.96092139       5.04350673       3.06659687       29       0.00106499      -0.00377403       0.00111080 
Cu     12.85710888       6.22185871       3.24483248       29      -0.00030186       0.00048313       0.00019214 
Cu      8.70002724       7.45529628       2.76113276       29      -0.00050778      -0.00331004       0.00086684 
Cu     11.16100470       8.07810815       2.89013003       29      -0.00156762      -0.00102472       0.00005262 
Cu      9.41455443       9.92670806       2.62477715       29      -0.00292192      -0.00247547       0.00035865 
Cu      9.50227017       3.84595048       4.70238121       29       0.00038151      -0.00172820       0.00075126 
Cu     11.96348632       4.45913800       4.84111831       29       0.00093713      -0.00056989      -0.00014163 
Cu     13.16842971       8.42870543       4.43713197       29      -0.00085319       0.00040761       0.00083186 
Cu     11.43300444      10.32792832       4.09611643       29      -0.00090590      -0.00152414       0.00056928 
Cu      6.32605425       5.61009139       4.85316884       29      -0.00051645       0.00087101      -0.00113489 
Cu      8.83338585       6.24924401       4.96496184       29      -0.00007425      -0.00101600       0.00038824 
Cu     11.30551170       6.85387953       5.05914326       29      -0.00044984       0.00027952      -0.00029999 
Cu      7.00698434       8.04998882       4.53976819       29      -0.00067124       0.00051963       0.00001254 
Cu      9.58499765      12.13663688       3.87466274       29      -0.00029076      -0.00182066       0.00003401 
Cu      9.57037169       8.69819737       4.72520108       29      -0.00131131      -0.00073152       0.00017186 
Cu     13.66777770       6.19604960       5.63644655       29      -0.00004850       0.00103435       0.00033595 
Cu      7.73270317      10.50546265       4.38161172       29      -0.00072418      -0.00007776       0.00141451 
Cu     11.00708666       2.75462664       6.49325850       29       0.00197909      -0.00013720      -0.00043642 
Cu      7.82985771       4.39601762       6.51337962       29      -0.00065301       0.00003175      -0.00099143 
Cu      7.28836257      12.94750717       4.64586817       29       0.00056962      -0.00012356       0.00033100 
Cu     10.37120434       5.09840267       6.66790804       29       0.00058616      -0.00013399      -0.00110025 
Cu     13.41381389      10.65847080       5.69058818       29      -0.00071250       0.00029926       0.00177743 
Cu     11.61714132      12.51413151       5.40219898       29      -0.00044911      -0.00106452       0.00091139 
Cu      4.95646229       7.46786927       6.07340985       29      -0.00104825       0.00035364       0.00171854 
Cu     12.75444951       4.40809099       7.28268118       29       0.00135484       0.00067195      -0.00086483 
Cu     11.60138945       9.05451747       6.25614343       29      -0.00147953      -0.00040142       0.00084209 
Cu      5.67036280       9.98371613       5.82724874       29      -0.00176674      -0.00004020       0.00214997 
Cu      9.79211184      10.89111310       5.96030945       29      -0.00036756      -0.00098555       0.00032795 
Cu      7.25790713       6.84384005       6.74432833       29      -0.00086533       0.00022735      -0.00061283 
Cu     13.98446199       8.42793125       6.86957990       29      -0.00178121       0.00125364       0.00107724 
Cu      9.75899021       7.47535601       6.85374380       29      -0.00053899      -0.00030428      -0.00035767 
Cu      7.96468864       9.25870203       6.50636487       29      -0.00083397      -0.00042091       0.00030390 
Cu      5.46248007       5.22685991       7.29190860       29      -0.00103442      -0.00013906      -0.00184107 
Cu     12.10056868       6.82932880       7.44941014       29      -0.00070713      -0.00030355      -0.00050954 
Cu      9.34444155       3.30882121       8.27292027       29       0.00043127       0.00037566      -0.00237917 
Cu      9.30953425      13.37705869       6.12188599       29       0.00036648      -0.00046411      -0.00100378 
Cu      5.20571242      12.44849399       6.11287188       29       0.00051666      -0.00006223       0.00200555 
Cu     14.41537744       6.18892264       8.09333121       29      -0.00088267       0.00193104       0.00042000 
Cu      7.49961940      11.66929819       6.70472658       29       0.00017975      -0.00012836       0.00081717 
Cu     11.69803756       2.71819635       8.94822553       29       0.00055355       0.00012643      -0.00194101 
Cu     13.59556530      12.82895630       6.96464629       29      -0.00050920      -0.00026310       0.00155874 
Cu      8.75827436       5.70677026       8.42457732       29       0.00008634       0.00013419      -0.00184800 
Cu      3.70800253       9.35884270       7.36682175       29      -0.00104092       0.00022472       0.00413267 
Cu     11.80187600      11.23283969       7.52580423       29      -0.00080044      -0.00026182       0.00101526 
Cu      5.99374258       8.67828824       7.95839383       29      -0.00045689      -0.00002132       0.00129703 
Cu      7.00463202       4.03749688       9.04825834       29       0.00046411      -0.00074854      -0.00191240 
Cu     11.09476142       5.07395386       9.08825946       29       0.00060486       0.00015086      -0.00064770 
Cu      6.96677591      14.10773750       6.89389746       29       0.00060843       0.00027876      -0.00027709 
Cu     10.01029487       9.64206028       8.06917463       29      -0.00102873       0.00009034       0.00065448 
Cu     14.16666221      10.65602477       8.14691742       29      -0.00142771       0.00009675       0.00305985 
Cu      8.24091873       8.06197596       8.58916394       29      -0.00034484      -0.00111627      -0.00121261 
Cu     13.42719618       4.44639484       9.74896397       29       0.00093931      -0.00060174      -0.00174115 
Cu      4.12329314       7.12572812       8.57432860       29       0.00045932      -0.00005308       0.00182419 
Cu     12.35049268       9.05303456       8.70064464       29      -0.00077847       0.00080623      -0.00152248 
Cu     11.32879034      13.68487356       7.68648564       29      -0.00073296       0.00057297       0.00068281 
Cu      3.21612057      11.79341505       7.63982309       29       0.00100991      -0.00009882       0.00335805 
Cu      6.48342602       6.50109123       9.14207554       29       0.00033680      -0.00047592      -0.00181458 
Cu     10.49337439       7.45295561       9.22832089       29      -0.00025466      -0.00127356      -0.00230772 
Cu     14.66497644       8.42144047       9.34602017       29      -0.00116252       0.00037455       0.00266619 
Cu      9.52413456      12.06515177       8.25965154       29      -0.00049147       0.00095963      -0.00102601 
Cu      5.47222507      11.08540443       8.19218586       29       0.00033455      -0.00000535       0.00152785 
Cu      9.71394081       2.17673017      10.46748403       29      -0.00174481       0.00161213      -0.00228928 
Cu      4.70565057       4.92742192       9.77906946       29       0.00058537      -0.00216638      -0.00435283 
Cu      7.74357157      10.40041064       8.79175659       29       0.00098612      -0.00049681      -0.00018439 
Cu     12.78168220       6.84337240       9.87876380       29       0.00301395      -0.00268692      -0.00315877 
Cu     15.07603967       6.21427270      10.52905495       29      -0.00004465      -0.00033316      -0.00093558 
Cu      9.10617418       4.53080262      10.56248290       29      -0.00107583       0.00242538      -0.00229856 
Cu      8.99413689      14.48176599       8.42805048       29      -0.00045853       0.00131402      -0.00249200 
Cu      4.92085230      13.52473878       8.39700289       29       0.00151875       0.00080308       0.00006573 
Cu     12.90730967      12.52977775       9.38140578       29      -0.00226428      -0.00041639       0.00206346 
Cu      7.21838417      12.78078188       8.98704210       29       0.00178426       0.00157402      -0.00090678 
Cu      2.28423928      10.08786518       9.28752081       29      -0.00061686       0.00386865       0.00264428 
Cu     11.46081261       3.82827258      11.27144971       29       0.00003161      -0.00019909      -0.00239723 
Cu      7.35794926       2.90354947      11.27541745       29      -0.00080075       0.00123614       0.00022733 
Cu     11.10047066      10.93062489       9.93757948       29      -0.00072740       0.00069449      -0.00003158 
Cu      4.54542444       9.39074935       9.82969008       29       0.00153195       0.00214905       0.00245489 
Cu      8.53154631       6.90940238      10.67908889       29      -0.00086951       0.00000402      -0.00109819 
Cu      9.27270975       9.29459758      10.43399962       29       0.00259026      -0.00063619       0.00252432 
Cu      6.82871904       8.72298056      10.40222278       29       0.00072905      -0.00131894       0.00010426 
Cu     13.46548748      10.32378901      10.59832969       29      -0.00401597      -0.00556823       0.00313303 
Cu      6.66912294      15.18354878       9.15991510       29       0.00220638       0.00104416      -0.00041461 
Cu      6.77382160       5.33511944      11.30650879       29      -0.00049579       0.00145543      -0.00246468 
Cu     10.83002031       6.25924910      11.37532523       29      -0.00521630       0.00650467       0.00115400 
Cu      2.70590944       7.85875822      10.53752730       29      -0.00038156       0.00323404       0.00137868 
Cu     12.18855449      12.17090610      11.84674709       29      -0.14695430       0.02684170      -0.18962545 
Cu      5.04694960       7.16791552      11.03923635       29       0.00055038      -0.00108366      -0.00191277 
Cu     10.60403168      13.38779815      10.12845437       29      -0.00324657       0.00056192      -0.00022504 
Cu      3.93315898      11.85511772      10.08187986       29       0.00271846       0.00277229      -0.00445800 
Cu     13.13896894       5.61780654      12.03877224       29       0.00049845      -0.00126443      -0.00254585 
Cu      5.02957447       3.78774719      11.98228232       29      -0.00123101       0.00030158      -0.00338655 
Cu     13.88088735       8.07049764      11.76734572       29      -0.00688591      -0.00208468      -0.00008253 
Cu      8.77002787      11.68884681      10.70249491       29      -0.07149685       0.19347818      -0.23228900 
Cu      6.26612352      11.13679781      10.65297041       29       0.00244079      -0.00386043      -0.00076055 
