147
Lattice="18.2500556056 0.0 0.0 0.0 18.2500556056 0.0 0.0 0.0 18.2500556056" Properties=species:S:1:pos:R:3:Z:I:1:forces:R:3 energy=-459.702199518 pbc="F F F"
Cu      6.71798843       9.89837889      16.30668220       29      -0.00158685      -0.00234046      -0.00006196 
Cu      6.42199881       9.16448875      14.05480634       29       0.00105321       0.00112330       0.00181055 
Cu      8.80050087       9.14410468      15.23781811       29       0.00003084       0.00288584      -0.00155198 
Cu      7.56084760       6.96417152      14.68818253       29       0.00054549      -0.00323196      -0.00058125 
Cu      9.70348871      10.60698636      13.44703693       29      -0.00394463       0.00058372       0.00820692 
Cu     10.14802769       7.13409933      14.34929993       29      -0.00171107       0.00069115       0.00119007 
Cu     11.47908249       5.17241581      13.31104089       29       0.00035935      -0.00129439      -0.00180652 
Cu     11.81579923      11.78293927      14.00416311       29       0.00077284      -0.00059131       0.00140916 
Cu     11.35023406       9.37492648      14.83733232       29      -0.00064088       0.00151564       0.00130351 
Cu      5.37633417      11.43623987      13.52173783       29       0.00145917       0.00312955       0.00037615 
Cu     12.68663664       7.39053193      13.88415905       29       0.00166851      -0.00228650       0.00024222 
Cu      6.41579827       4.78428103      14.02625431       29      -0.00101739       0.00152242      -0.00971401 
Cu     13.96466947       5.44889796      12.86318558       29      -0.00087449      -0.00037242      -0.00226744 
Cu      7.68760065      11.42564619      14.64270819       29       0.00130527      -0.00400816      -0.00032459 
Cu      8.92378482       4.95900688      13.70735485       29       0.00136349      -0.00063144       0.00012308 
Cu      5.24830963       6.96528502      13.48346019       29      -0.00038092       0.00118411      -0.00085258 
Cu      9.55817924      13.04682326      13.88235973       29       0.00003409      -0.00046517      -0.00046716 
Cu      8.26474178       6.91322501       1.94337340       29       0.00362563       0.00215818      -0.00135932 
Cu      9.45936407       9.10205425       2.42672581       29      -0.00000971       0.00034685       0.00076150 
Cu     10.66365502      11.31995878       3.00421631       29       0.00157280      -0.00042875       0.00044010 
Cu      6.91091362       8.87679464       2.81754264       29       0.00101590      -0.00003677       0.00099276 
Cu     11.83437601      13.47785894       3.65231562       29      -0.00059863       0.00220629       0.00117393 
Cu      8.10317403      11.12174763       3.32391512       29      -0.00076708      -0.00151838      -0.00046062 
Cu      9.32151688      13.31343776       3.97535630       29      -0.00036371      -0.00219735      -0.00136219 
Cu     10.56439813       6.83278244       3.01703555       29       0.00233232       0.00286181      -0.00071768 
Cu      5.56863847      10.86923971       3.78737652       29       0.00070381      -0.00366223      -0.00120440 
Cu     11.80454332       9.05039654       3.52268521       29       0.00076310       0.00180525       0.00128663 
Cu      6.77346003      13.08750147       4.36826769       29      -0.00033794      -0.00201619      -0.00339694 
Cu     12.97498754      11.26894133       4.16945016       29       0.00217423       0.00038875       0.00169188 
Cu      6.43927158       6.46717225       3.64697708       29       0.00234969       0.00050957       0.00189667 
Cu      4.28960215      12.80928307       4.81293440       29      -0.00055925       0.00028138       0.00022520 
Cu      8.69874302       5.20540026       3.77317244       29       0.00174168       0.00188169      -0.00013596 
Cu      8.55525641       7.65798875       4.26170265       29      -0.00133052      -0.00074710      -0.00078866 
Cu     12.87545176       6.78531989       4.18228458       29      -0.00030858      -0.00195804       0.00177035 
Cu      9.74826820       9.84667005       4.76932184       29       0.00000491       0.00164811       0.00032416 
Cu      5.04388567       8.45074007       4.55852795       29      -0.00007236      -0.00214223      -0.00177274 
Cu     14.08083756       9.00328714       4.75806011       29      -0.00063817       0.00002542       0.00265420 
Cu     10.80247456      14.49211781       5.74109580       29       0.00232033      -0.00068470      -0.00048332 
Cu     10.92335784      12.01464852       5.39629364       29      -0.00040661      -0.00081128      -0.00064015 
Cu      7.20848977       9.62174516       5.15867320       29      -0.00029551      -0.00060724       0.00011013 
Cu     13.06213825      13.23006219       5.86067198       29       0.00162045       0.00035755      -0.00014183 
Cu      8.24137590      14.33482060       6.09834335       29       0.00177923      -0.00136058      -0.00107181 
Cu      8.40957139      11.83249434       5.73576679       29       0.00127855      -0.00221197       0.00156321 
Cu      3.75288646      10.45070968       5.58391583       29      -0.00022031      -0.00091731      -0.00050571 
Cu     11.03607248       5.10385108       4.88826941       29       0.00088511      -0.00043644      -0.00024183 
Cu     10.85029197       7.58678798       5.35714941       29       0.00054344       0.00047171      -0.00138740 
Cu      5.70347719      14.03950569       6.52669171       29      -0.00034092      -0.00171832       0.00036163 
Cu     15.10574795       6.76861373       5.39516307       29       0.00053362      -0.00023172       0.00159479 
Cu      5.91612688      11.56974101       6.16602070       29      -0.00016464      -0.00024751      -0.00047896 
Cu     12.05136524       9.79741992       5.93177804       29       0.00322718      -0.00215028      -0.00236820 
Cu      4.62757308       6.04890430       5.44237489       29      -0.00004124       0.00156992       0.00055304 
Cu     14.23439893      10.98757466       6.41606775       29       0.00121861       0.00021421       0.00061046 
Cu      6.85634461       4.73139551       5.52693410       29       0.00083129       0.00015003      -0.00111645 
Cu      6.73894129       7.22088608       5.98544097       29       0.00053362      -0.00196546      -0.00015100 
Cu      9.14587440       3.52970052       5.69714138       29      -0.00025743      -0.00095730      -0.00093845 
Cu      3.28303419       8.04131350       6.40969022       29       0.00102075       0.00084116       0.00192252 
Cu      8.99153039       5.96456343       6.11067218       29      -0.00215011      -0.00133756      -0.00112046 
Cu      8.84298889       8.39758814       6.56732853       29       0.00137757       0.00201626      -0.00001985 
Cu     13.32176775       5.10779671       6.10715976       29      -0.00009687       0.00110014      -0.00050391 
Cu      3.83775281      12.41037881       7.28001660       29      -0.00229488       0.00047239       0.00006250 
Cu     13.09517894       7.56150608       6.55344397       29      -0.00132827      -0.00012151      -0.00227151 
Cu      9.88585780      13.00805248       7.49668416       29      -0.00022276      -0.00004549      -0.00194105 
Cu      9.73482159      15.44488330       7.89939415       29      -0.00043620       0.00180583      -0.00258909 
Cu     10.01840338      10.55905856       7.12964780       29      -0.00208181      -0.00123199       0.00080868 
Cu      5.39936919       9.20561677       6.94934252       29       0.00040587      -0.00126453      -0.00018242 
Cu     15.27294270       8.69748731       7.03776652       29       0.00121563       0.00034748       0.00191507 
Cu     12.03347011      14.25167200       8.00719144       29      -0.00259208       0.00055328       0.00003256 
Cu     12.13798072      11.75088243       7.61616155       29      -0.00210491       0.00137478       0.00052325 
Cu      7.34395392      12.78145283       7.88669002       29      -0.00010168      -0.00068839       0.00126638 
Cu      7.18392313      15.21729609       8.29240601       29      -0.00177528       0.00148840      -0.00095506 
Cu      7.53356118      10.33778451       7.51057502       29       0.00062391      -0.00063211      -0.00056843 
Cu     14.25409392      12.92218580       8.13831691       29      -0.00111478       0.00279745       0.00043232 
Cu     11.45710369       3.48022882       6.86480079       29       0.00002173      -0.00017715      -0.00027509 
Cu     11.29463631       5.91505257       7.27430059       29      -0.00063962       0.00190687       0.00036015 
Cu     11.09575286       8.34930753       7.70420286       29      -0.00216984       0.00191788      -0.00021896 
Cu      2.89705516       5.67811016       7.25961212       29      -0.00008577      -0.00231344       0.00070228 
Cu      3.28629635      10.01573691       8.09089703       29      -0.00091309      -0.00119908      -0.00062516 
Cu     13.23950210       9.49240941       8.20289497       29      -0.00010753      -0.00194019       0.00161219 
Cu      5.07335835       4.37024562       7.36699641       29      -0.00063724       0.00034020      -0.00211571 
Cu      4.99168581       6.83748399       7.79061912       29      -0.00146077      -0.00152033       0.00053595 
Cu      5.26646944      13.64797508       9.05190924       29      -0.00221639       0.00160837       0.00147767 
Cu     14.80276405       6.29062608       7.87173171       29      -0.00117839      -0.00057844       0.00196203 
Cu      5.48225994      11.15714631       8.63955409       29      -0.00046892      -0.00014129       0.00060782 
Cu     15.35909891      10.65662919       8.72759425       29      -0.00036606       0.00063894       0.00053903 
Cu      7.33194574       3.11090190       7.49493698       29       0.00119482      -0.00067886      -0.00039349 
Cu      7.18353013       5.54721050       7.90183733       29      -0.00067109       0.00105921       0.00008165 
Cu      7.07450828       7.99076346       8.31969298       29      -0.00367223      -0.00282874       0.00011081 
Cu      9.58496830       1.94959711       7.63807522       29      -0.00032397       0.00269742       0.00106812 
Cu      9.43065470       4.36345903       8.04114210       29      -0.00292647      -0.00161073      -0.00075219 
Cu      9.27675559       6.76288199       8.44116769       29       0.00136833      -0.00098855      -0.00112693 
Cu      9.12680080       9.12682892       8.83927687       29       0.00572286      -0.00016264      -0.00210446 
Cu      8.97755159      11.48828471       9.23338869       29       0.00030155       0.00045257      -0.00185600 
Cu      8.82477647      13.88730558       9.63565460       29      -0.00053226      -0.00293896      -0.00098782 
Cu      8.67093841      16.30045849      10.04194978       29      -0.00063942       0.00074668      -0.00319188 
Cu     11.17938303      10.25979612       9.35085402       29      -0.00272672       0.00072791       0.00482183 
Cu     11.07331490      12.70164348       9.76648887       29      -0.00128902       0.00359880      -0.00212370 
Cu     10.92546427      15.13817596      10.17557808       29       0.00099238       0.00066451       0.00161276 
Cu      2.89048981       7.59194050       8.92588038       29       0.00052791       0.00123217       0.00063610 
Cu     12.98735771       4.60287189       8.62753989       29       0.00051939       0.00001517      -0.00119852 
Cu      3.45421903      11.95993170       9.80294057       29       0.00022468      -0.00077000       0.00220852 
Cu     12.77010365       7.09343629       9.03369238       29       0.00115063       0.00055468       0.00024077 
Cu     13.26317546      11.41137427       9.87266851       29      -0.00011038       0.00053116       0.00235268 
Cu     13.18557366      13.87831698      10.29544761       29      -0.00126308       0.00186310      -0.00015472 
Cu      5.00836570       8.75858083       9.45433865       29      -0.00093936       0.00276799       0.00194477 
Cu     14.96527322       8.23936101       9.57035110       29       0.00040435      -0.00230836      -0.00086858 
Cu     15.35956580      12.57054425      10.39742936       29      -0.00112042      -0.00030556      -0.00051577 
Cu      7.15662352       9.90149870       9.96583552       29      -0.00033539       0.00193230      -0.00000467 
Cu      6.95913329      12.33456636      10.39733942       29      -0.00110324       0.00196719      -0.00083411 
Cu      6.79640008      14.76825390      10.81347335       29       0.00087991       0.00126075      -0.00078201 
Cu      4.00055497       5.31831159       9.51797878       29      -0.00182056       0.00053945       0.00128065 
Cu     10.72036045       7.91575693      10.16283705       29      -0.00104547      -0.00056321      -0.00108333 
Cu     11.07141957       3.03507895       9.38864817       29      -0.00404145      -0.00104569      -0.00033301 
Cu     10.90948134       5.47128776       9.78851884       29      -0.00161586      -0.00136194       0.00143080 
Cu      6.11504246       6.49058185      10.04572902       29       0.00394794       0.00004778      -0.00107726 
Cu      6.22462944       3.99219719       9.66008483       29      -0.00001202      -0.00089619      -0.00070868 
Cu      2.97672444       9.55433120      10.61729560       29       0.00002646      -0.00114796       0.00202203 
Cu     12.85646554       9.04690184      10.71701515       29      -0.00160218       0.00244405       0.00081101 
Cu      8.23542884       7.69164526      10.54126625       29      -0.00367404      -0.00590549       0.00620693 
Cu      8.52201460       2.80723140       9.78012638       29       0.00019363      -0.00212769      -0.00298156 
Cu      8.36666539       5.24362816      10.17909703       29       0.00021233       0.00669935       0.00004556 
Cu      5.15925644      10.68351539      11.12592485       29      -0.00105803       0.00159090       0.00160858 
Cu     14.41719727       5.84448662      10.39416209       29      -0.00133162       0.00017267       0.00152795 
Cu      4.93593184      13.13057614      11.57882511       29       0.00062104       0.00197949      -0.00018433 
Cu      9.41226710       9.85770976      11.11573284       29       0.00106860       0.00034653      -0.00551699 
Cu      9.26496017      12.28515985      11.56174834       29      -0.00120867       0.00185901       0.00060347 
Cu     14.97522005      10.21065060      11.25024129       29      -0.00167000       0.00023287       0.00010963 
Cu      9.10930081      14.72035589      11.97781189       29       0.00046475      -0.00017722       0.00131270 
Cu     11.51322400      11.02991136      11.68290898       29       0.00325919      -0.00049235      -0.00496550 
Cu     11.40120908      13.52081691      12.13783318       29       0.00135531       0.00255413      -0.00082195 
Cu      4.00275062       7.24928604      11.23087154       29      -0.00037025       0.00024991      -0.00042284 
Cu     13.62796709      12.20245895      12.21915915       29       0.00250417      -0.00329050      -0.00358083 
Cu      6.18202005       8.43573654      11.70277411       29       0.00460014      -0.00257223      -0.00011505 
Cu     12.33763411       6.68552937      11.50832767       29       0.00194546       0.00066049       0.00021212 
Cu      3.14880708      11.47551433      12.27884522       29       0.00020281      -0.00046970       0.00486961 
Cu     12.54949286       4.21694296      11.15289695       29      -0.00073926      -0.00057189       0.00021926 
Cu      7.40640574      10.66667054      12.30842104       29      -0.00049840       0.00196379       0.00221340 
Cu      7.21397680      13.14387285      12.78372948       29       0.00055278       0.00230726       0.00161594 
Cu     14.50358327       7.80455377      12.08350942       29      -0.00113059       0.00049424      -0.00092999 
Cu      9.84394182       6.42178694      11.93725068       29      -0.00039223       0.00084386      -0.00459004 
Cu     10.01089402       3.92265789      11.58371334       29       0.00170114      -0.00138975      -0.00054663 
Cu      5.19252177       5.01330395      11.80137686       29       0.00215078       0.00125195       0.00340785 
Cu     11.04614522       8.63520093      12.51171099       29       0.00201230      -0.00286081      -0.00271545 
Cu      7.32424930       6.24622616      12.28233965       29       0.00212075      -0.00044603       0.00285623 
Cu      7.45225621       3.76665685      11.93746477       29      -0.00422318       0.00235101       0.00474969 
Cu      4.14302051       9.22814505      12.89255292       29       0.00117011       0.00063125       0.00247953 
Cu     13.21592178       9.80513652      13.10511356       29       0.00015545      -0.00466552      -0.00225258 
Cu      8.51062284       8.40470512      12.89818266       29      -0.00036625      -0.00001637      -0.00063493 
