147
Lattice="18.0927685007 0.0 0.0 0.0 18.0927685007 0.0 0.0 0.0 18.0927685007" Properties=species:S:1:pos:R:3:Z:I:1:forces:R:3 energy=-459.313583401 pbc="F F F"
Cu     12.21080431       7.46795316      15.76873189       29       0.00216542      -0.00624291       0.00123417 
Cu      9.06213461       8.87573310      15.12974419       29      -0.00088355       0.00291976      -0.00016800 
Cu      9.55490501      11.27894540      14.19877510       29      -0.00258522      -0.00134522      -0.00271992 
Cu      9.90024110       6.75564049      16.21474202       29       0.00068691       0.00484796       0.00617857 
Cu      7.41432992       8.52594812      13.27373055       29       0.00339112       0.00257234      -0.00233688 
Cu      7.62109130      12.91393684      13.62591099       29       0.00411398      -0.00014940      -0.00137787 
Cu     11.46460354       9.56505407      14.63038015       29       0.00031592       0.00081435      -0.00025980 
Cu      7.11622953      10.57948833      14.61178641       29      -0.00119773       0.00031623       0.00018938 
Cu      8.13267168       6.51712654      14.52400138       29      -0.00062472      -0.00004664       0.00180993 
Cu     11.98125920      11.92465570      13.61461219       29       0.00055243      -0.00408794      -0.00353352 
Cu      5.07705565       9.23629528      13.72376008       29       0.00285557      -0.00157616      -0.00207469 
Cu     12.28132056       5.52609864      13.02146943       29      -0.00016484       0.00009810      -0.00059122 
Cu     10.06877246      13.58678523      13.12646301       29      -0.00035184      -0.00178132      -0.00419369 
Cu      5.72210095       6.73687714      13.66675530       29      -0.00011165      -0.00097105       0.00497260 
Cu      9.80060038       4.84851798      13.53487661       29      -0.00044734      -0.00331523       0.00486539 
Cu     13.12919411       7.89178768      13.51360564       29       0.00280167       0.00062090      -0.00011171 
Cu     10.63413040       7.19627550      13.96315724       29      -0.00058314      -0.00069035       0.00293423 
Cu     11.48727276       9.82584873       1.87802649       29       0.00042264       0.00086182       0.00079162 
Cu      9.07180770       9.16606088       2.28897199       29      -0.00222226      -0.00229736      -0.00362024 
Cu     10.99482255       7.50550113       2.78859712       29       0.00052660       0.00064176       0.00072411 
Cu      6.62421426       8.49551942       2.78900063       29       0.00117554      -0.00158502      -0.00538875 
Cu      9.90399440      11.55316617       2.85765919       29      -0.00354745       0.00157831      -0.00218085 
Cu      8.53962641       6.80489320       3.21828930       29       0.00085095       0.00109160      -0.00230182 
Cu      7.43388416      10.90586744       3.28737997       29      -0.00072772       0.00157134      -0.00351139 
Cu      4.23943937       7.84222152       3.35958537       29      -0.00199602      -0.00356191      -0.00091041 
Cu     13.01658608       8.86720663       3.66148012       29      -0.00050314       0.00106952       0.00221757 
Cu     12.34122646      11.37053362       3.70457918       29      -0.00265908      -0.00213932       0.00239390 
Cu     10.46989827       5.17527553       3.79269021       29       0.00233207       0.00181989       0.00172277 
Cu      6.09814437       6.16393979       3.78855624       29       0.00068564      -0.00194712       0.00149636 
Cu      5.00621386      10.21050407       3.85785446       29      -0.00401966       0.00322333       0.00014768 
Cu      8.28558634      13.26843091       3.92779256       29      -0.00042215      -0.00120200      -0.00038538 
Cu     10.66774239       9.56586074       4.17520608       29       0.00169869      -0.00015743      -0.00052342 
Cu      8.02164827       4.50294905       4.29478206       29       0.00259711       0.00238063      -0.00150835 
Cu      5.83619390      12.59635469       4.42721427       29      -0.00212385      -0.00134437       0.00072166 
Cu     12.53637361       6.50392675       4.61281551       29       0.00307282      -0.00051146      -0.00213186 
Cu      8.25052081       8.90419335       4.60838390       29      -0.00046497      -0.00131594       0.00098445 
Cu     10.74468582      13.14002057       4.72498985       29      -0.00415558       0.00075574       0.00146542 
Cu      9.93665978       2.92857055       4.85176152       29      -0.00109350      -0.00138545      -0.00079466 
Cu      6.69747849      14.90356629       5.04755595       29      -0.00200822      -0.00004237       0.00000516 
Cu     10.16730956       7.25040930       5.10707998       29      -0.00022759       0.00155875       0.00128894 
Cu      9.07866840      11.28336397       5.17514642       29      -0.00119630       0.00071423       0.00003927 
Cu      5.85633901       8.24616739       5.15832059       29       0.00033652       0.00466258       0.00409968 
Cu     13.89971272      10.42002059       5.53620113       29      -0.00227504       0.00026308       0.00359669 
Cu     14.51250891       7.90051694       5.53655927       29      -0.00135189      -0.00032801       0.00233344 
Cu      4.15268691       6.43849191       5.47321196       29       0.00075321       0.00187304       0.00095171 
Cu     13.15757080      12.90401125       5.62680850       29      -0.00121639      -0.00130414       0.00000840 
Cu      3.47748076       8.94114795       5.51796924       29      -0.00104038      -0.00022797      -0.00436003 
Cu      7.72640297       6.58091255       5.60592040       29       0.00102233       0.00161536       0.00067921 
Cu      6.63712887      10.61353510       5.67389083       29      -0.00063236       0.00070155       0.00111842 
Cu     11.96794034       4.20757016       5.67249857       29       0.00201545      -0.00187682       0.00121791 
Cu      9.10242680      14.80111177       5.84992799       29       0.00081329      -0.00113942      -0.00080261 
Cu     12.18202468       8.60806602       5.97780585       29       0.00071738       0.00225360      -0.00057843 
Cu     11.50772311      11.10152028       6.02001832       29      -0.00201395       0.00032891       0.00211904 
Cu      6.03843811       4.72206695       5.94100245       29       0.00019515      -0.00019624      -0.00068262 
Cu      4.24535211      11.35776101       6.05308904       29      -0.00172529      -0.00092879      -0.00073764 
Cu      9.63644628       4.98789621       6.14713521       29       0.00069191       0.00041649      -0.00044485 
Cu      7.48773479      12.93517150       6.27835064       29       0.00045156      -0.00322101      -0.00257508 
Cu      9.85133151       9.30650835       6.45871193       29      -0.00104277       0.00022011      -0.00041028 
Cu     13.98695734       5.57021036       6.54448427       29      -0.00095281      -0.00056513      -0.00138587 
Cu      8.00435541       3.11855723       6.48517924       29      -0.00077658       0.00035934      -0.00359956 
Cu     11.53782281      14.61773236       6.70121707       29       0.00092591       0.00110023      -0.00138130 
Cu      5.13917577      13.71202255       6.65903988       29      -0.00479761       0.00107711       0.00328632 
Cu      7.46379829       8.65167568       6.94703519       29      -0.00150625      -0.00047146      -0.00729892 
Cu     11.65817618       6.28499989       6.97838352       29      -0.00057466       0.00065328       0.00146369 
Cu      9.89355127      12.81044848       7.08865538       29      -0.00217009      -0.00353550       0.00532113 
Cu      5.78750656       6.85482960       7.28541161       29      -0.00358329       0.00069705      -0.00326975 
Cu      5.11430224       9.34831487       7.32797832       29      -0.00294060      -0.00132829      -0.00144741 
Cu     10.44338259       2.94071337       7.34319233       29      -0.00087459      -0.00237823      -0.00069714 
Cu     15.91605658       6.96330700       7.43233998       29       0.00028884       0.00075173      -0.00257440 
Cu     15.33173111       9.43738065       7.45296489       29      -0.00124687      -0.00299226       0.00165903 
Cu     14.65397995      11.93785528       7.49841361       29       0.00156450      -0.00206063       0.00164525 
Cu      9.33872759       7.03551906       7.43505393       29       0.00109254      -0.00078029      -0.00355033 
Cu     13.90922254      14.36398054       7.56693051       29      -0.00075789      -0.00230171      -0.00053668 
Cu      8.27300661      10.97753830       7.50106854       29      -0.00014183       0.00020098       0.00130401 
Cu      7.15778616      15.07266501       7.54036121       29      -0.00118450       0.00001695      -0.00027447 
Cu      4.13023946       5.05421010       7.65744233       29       0.00033598       0.00040652       0.00201677 
Cu      3.37942448       7.53533222       7.68775323       29       0.00054864       0.00248560      -0.00127248 
Cu      2.78064002      10.05710284       7.74726958       29       0.00036391       0.00172503      -0.00196989 
Cu      7.70678229       5.20078914       7.78653429       29      -0.00133698      -0.00160877      -0.00192539 
Cu     13.60610242       7.66656355       7.85945946       29       0.00027805       0.00009616       0.00168617 
Cu     12.99768811      10.13861084       7.88664256       29       0.00375398      -0.00080855       0.00225562 
Cu     12.27505465      12.57546010       7.94852900       29      -0.00328317       0.00070838       0.00015361 
Cu      5.94193992      11.72574985       7.89731383       29       0.00146976      -0.00248026       0.00251130 
Cu     12.50935598       4.23355411       8.20755367       29      -0.00176647       0.00128849       0.00026650 
Cu      6.05723150       3.39471813       8.16354146       29       0.00058153       0.00040149       0.00015323 
Cu     11.30851035       8.36404892       8.28801731       29       0.00232110       0.00048084       0.00157754 
Cu     10.64881906      10.79938585       8.32899056       29      -0.00340053       0.00098467      -0.00145752 
Cu      9.60096936      14.96705662       8.38709098       29       0.00300595      -0.00083702       0.00201991 
Cu      3.61202762      12.44278766       8.32011720       29       0.00030125       0.00034716      -0.00147277 
Cu     10.13824861       5.02137153       8.64489521       29       0.00176747      -0.00393781       0.00283603 
Cu      9.04678328       9.05115721       8.70985425       29       0.00516319       0.00215131       0.00787883 
Cu      7.95448645      13.08105149       8.77527830       29       0.00306632       0.00109767      -0.00306384 
Cu     14.48576313       5.66280283       9.07979302       29       0.00012572      -0.00404220      -0.00127872 
Cu      8.49017811       3.13035307       9.02988494       29       0.00142139       0.00221743      -0.00079968 
Cu      7.44172217       7.30291652       9.07860460       29      -0.00036631      -0.00277834       0.00478942 
Cu      6.78338772       9.73830626       9.11966545       29      -0.00290860       0.00472223       0.00069885 
Cu     12.03069986      14.70587212       9.24315658       29      -0.00003478      -0.00045637      -0.00085694 
Cu      5.58607342      13.86449700       9.20855295       29      -0.00294606       0.00279947      -0.00234185 
Cu     12.15359731       6.37475384       9.50001755       29       0.00097469      -0.00293941      -0.00065420 
Cu      5.81119162       5.52723549       9.45264069       29       0.00080624       0.00022758      -0.00131286 
Cu      5.08859679       7.96818756       9.50451063       29      -0.00025745       0.00024191       0.00029817 
Cu      4.48659377      10.43865630       9.54088889       29       0.00038547      -0.00045502      -0.00319550 
Cu     10.38347267      12.89842363       9.62147674       29       0.00501879       0.00169747       0.00176140 
Cu     15.31962458       8.05838562       9.64099394       29      -0.00060981      -0.00313805      -0.00118542 
Cu     14.71427368      10.58025487       9.69407649       29      -0.00042919       0.00077162       0.00194968 
Cu     13.95679310      13.05056060       9.73925402       29      -0.00234603       0.00014865      -0.00127790 
Cu     10.93269142       3.04625739       9.89486175       29       0.00323039       0.00073112      -0.00236064 
Cu      9.81945360       7.12476520       9.90780862       29      -0.00351949       0.00488001      -0.00208190 
Cu      4.17192590       3.74218067       9.82899437       29       0.00148697      -0.00307324      -0.00125660 
Cu      8.75228852      11.06474029       9.97819382       29       0.00493696      -0.00364405      -0.00516753 
Cu      3.42880568       6.17129188       9.88532483       29       0.00039698       0.00345285      -0.00019681 
Cu      2.75329168       8.67322015       9.93110310       29       0.00253609      -0.00122196      -0.00106213 
Cu      2.17671192      11.14526119       9.96203761       29      -0.00060557      -0.00104964       0.00213246 
Cu      7.65105415      15.16060266      10.08204153       29      -0.00119573       0.00085359       0.00013300 
Cu     12.98513987       8.76803437      10.06473777       29       0.00554679      -0.00528589      -0.00110828 
Cu     12.30297859      11.24606357      10.11876914       29       0.00381531       0.00428243      -0.00005613 
Cu      8.19389680       5.28668772      10.30948174       29      -0.00317534       0.00193498      -0.00055124 
Cu      6.43177379      11.81400346      10.43052439       29       0.00011315      -0.00229843      -0.00105033 
Cu     10.63751351       9.45659154      10.46793288       29      -0.00519418      -0.00133012      -0.00527661 
Cu     12.95151593       4.40703220      10.76458543       29      -0.00080536      -0.00125689       0.00239220 
Cu      6.54477044       3.48187159      10.70055955       29       0.00162965       0.00025324      -0.00055769 
Cu     10.08781460      14.97506576      10.93480145       29       0.00134166       0.00075286      -0.00044271 
Cu      4.10454749      12.53189920      10.86290118       29      -0.00241777      -0.00136692       0.00024502 
Cu      8.23232302       8.79512460      10.95924917       29       0.00048637      -0.00285055       0.00068439 
Cu     10.60644769       5.18607554      11.16339335       29       0.00489226       0.00029637      -0.00203971 
Cu      8.45473960      13.10856222      11.27071543       29       0.00407328       0.00336970       0.00193571 
Cu     13.87005755       6.74802200      11.33362811       29      -0.00004151       0.00030947       0.00178814 
Cu     12.05152479      13.37843734      11.46832873       29      -0.00204326      -0.00099019      -0.00131742 
Cu      6.56833538       7.00411497      11.37719378       29       0.00030029      -0.00007396      -0.00033907 
Cu      5.90888905       9.48983359      11.42579394       29      -0.00044920       0.00275317       0.00601827 
Cu      8.98994146       3.32099115      11.57888741       29       0.00232411      -0.00244889      -0.00425313 
Cu      6.12486162      13.88837600      11.74421373       29      -0.00240745       0.00089634       0.00199988 
Cu     11.48965771       7.49697872      11.68923137       29       0.00406238      -0.00339511       0.00234050 
Cu     10.36764756      11.52015640      11.80159536       29      -0.00318414       0.00692676       0.00403634 
Cu     14.61918257       9.17745742      11.85221145       29       0.00157209      -0.00177812       0.00227985 
Cu      4.91427268       5.20101249      11.76550096       29       0.00240853       0.00073562       0.00067765 
Cu     13.92643635      11.66430119      11.91349255       29       0.00069933      -0.00053849       0.00391820 
Cu      3.57709799      10.20269661      11.86020590       29       0.00108248       0.00153873      -0.00240122 
Cu      4.17487423       7.68795988      11.84798845       29      -0.00288255       0.00144303      -0.00091522 
Cu     12.26227140       9.85821792      12.28192513       29       0.00052845       0.00418987       0.00064981 
Cu      8.97122469       6.80359142      12.20628539       29      -0.00765160       0.00518321      -0.00139485 
Cu      7.91880263      10.84767444      12.30108414       29      -0.00078738       0.00345554       0.00506318 
Cu     11.39526664       3.22568214      12.39294996       29       0.00165001       0.00296472       0.00323613 
Cu      8.15629842      15.16419795      12.57260236       29       0.00209134      -0.00260320       0.00063987 
Cu      7.32291779       4.94907919      12.66976517       29      -0.00210586      -0.00123179      -0.00185909 
Cu      9.83306898       9.21462138      12.78737838       29      -0.00146940       0.00225712      -0.00093034 
Cu      5.55376533      11.59398426      12.79788983       29       0.00273635      -0.00185717      -0.00209534 
