147
Lattice="18.0735687057 0.0 0.0 0.0 18.0735687057 0.0 0.0 0.0 18.0735687057" Properties=species:S:1:pos:R:3:Z:I:1:forces:R:3 energy=-459.155921666 pbc="F F F"
Cu      8.08796994       5.16416589      15.59639039       29      -0.00018686      -0.00013066      -0.00106856 
Cu      8.18324086       7.69781678      15.71056974       29       0.00108611       0.00066645      -0.00120058 
Cu      8.29505245      10.28347468      15.74236011       29      -0.00259570      -0.00457760      -0.00271592 
Cu      8.41342545      12.81780954      15.68959125       29      -0.00131533       0.00134531      -0.00018418 
Cu     10.30778548       6.32181956      15.16631400       29       0.00133446       0.00155922      -0.00199637 
Cu      6.15361396       6.49828902      14.63374464       29       0.00173331       0.00118787       0.00272773 
Cu     10.43445772       8.90579947      15.27244804       29       0.00271660      -0.00048108       0.00149771 
Cu      6.22784186       9.08545468      14.73535261       29      -0.00222291       0.00051825       0.00064182 
Cu     10.52925692      11.49276815      15.22879340       29      -0.00350280       0.00099217       0.00025141 
Cu      6.37479367      11.67094702      14.69745280       29      -0.00250429      -0.00128399       0.00094231 
Cu      4.23396019       7.88629752      13.59056523       29       0.00122840      -0.00133223      -0.00045150 
Cu     12.53928444       7.53218384      14.65287220       29       0.00233974      -0.00120183       0.00011981 
Cu     12.65073143      10.11738558      14.68512595       29      -0.00159369       0.00201988      -0.00078312 
Cu      4.34523519      10.47167817      13.62301403       29      -0.00274015       0.00375330      -0.00044632 
Cu      7.02634812       4.38171321      13.42571133       29       0.00005901       0.00062882      -0.00115982 
Cu      9.59374956       4.26987123      13.75928791       29       0.00313985       0.00057366      -0.00244477 
Cu      8.40733933       6.46509812      13.54167322       29      -0.00097847      -0.00200655       0.00228740 
Cu      8.50615949       9.00350131      13.63287622       29       0.00181280       0.00281926      -0.00005723 
Cu      8.62265919      11.54391050      13.60414277       29       0.00051858       0.00160502       0.00260888 
Cu      9.98869666      13.62688698      13.86911635       29      -0.00135941       0.00088549       0.00135545 
Cu      7.42114215      13.73962345      13.54316430       29      -0.00140841       0.00064713       0.00188331 
Cu      2.40389439       9.27154799      12.50599184       29      -0.00175143       0.00067416       0.00022607 
Cu     14.69732353       8.74543982      14.07815361       29       0.00102185       0.00022142       0.00182192 
Cu      5.05178373       5.72535275      12.41953968       29       0.00377704       0.00225477      -0.00090365 
Cu     11.86383625       5.43346248      13.29634854       29       0.00009342       0.00098597      -0.00083476 
Cu     10.62250789       7.63309435      13.08972618       29       0.00201627       0.00040776       0.00251011 
Cu      6.48288682       7.80988739      12.56172943       29      -0.00265546      -0.00070319      -0.00220301 
Cu     10.73291187      10.21053595      13.12213445       29      -0.00012183       0.00073764       0.00259222 
Cu      6.59243821      10.38702260      12.59194030       29       0.00023449      -0.00157768      -0.00022611 
Cu     12.15386331      12.29396958      13.37447647       29      -0.00478115      -0.00052403       0.00053366 
Cu      5.34191051      12.58786238      12.50794059       29      -0.00174392      -0.00067412      -0.00090804 
Cu      3.18370226       7.15707704      11.33608700       29       0.00653079      -0.00228111       0.00034317 
Cu     14.05989924       6.69159165      12.73323472       29       0.00098092      -0.00218772       0.00054624 
Cu     12.79396844       8.84330399      12.53476866       29       0.00019394      -0.00317677      -0.00023390 
Cu      4.63334645       9.19103964      11.48994032       29       0.00720889      -0.00420686      -0.00070817 
Cu     14.23542879      10.87695402      12.77829302       29      -0.00218846       0.00012083      -0.00016243 
Cu      3.35904843      11.34299121      11.39288707       29       0.00101086       0.00297423       0.00208063 
Cu      8.54024010       3.46839867      11.53441324       29      -0.00233976       0.00055250       0.00020697 
Cu     11.11447807       3.42937655      11.83965985       29      -0.00020155       0.00307970       0.00026959 
Cu      5.97845322       3.65105088      11.17687152       29      -0.00139577       0.00092107       0.00194075 
Cu      9.91193406       5.58864777      11.68910504       29       0.00200344      -0.00421064      -0.00199175 
Cu      7.35193792       5.69989953      11.35408359       29       0.00209269       0.00138856       0.00111393 
Cu      8.72197976       7.75615116      11.49782764       29       0.00458373       0.00580428      -0.00364696 
Cu      8.83004318      10.27805003      11.53102103       29       0.00132567      -0.00348042      -0.00211420 
Cu     10.19405049      12.33678211      11.76747520       29       0.00369345       0.00381209      -0.00121053 
Cu      7.63526601      12.44911700      11.44255267       29      -0.00064657       0.00157563      -0.00003802 
Cu      9.00413277      14.57006425      11.66867889       29      -0.00144115       0.00325406       0.00132117 
Cu      6.43789420      14.61141367      11.31673476       29      -0.00554601      -0.00205101      -0.00277982 
Cu     11.57103516      14.38483640      11.96502172       29      -0.00491200       0.00269139      -0.00326474 
Cu     13.34744390       4.64152758      11.32678547       29      -0.00105382      -0.00289984      -0.00229663 
Cu      4.05628089       5.03918458      10.13007773       29       0.00188647      -0.00142591      -0.00139242 
Cu     12.13857977       6.79606358      11.17809808       29       0.00200672       0.00008807      -0.00070445 
Cu      5.43897811       7.08168542      10.31318310       29       0.00263469       0.00062350       0.00099879 
Cu      2.63823911       9.29357310       9.97640501       29      -0.00041495      -0.00060697      -0.00156072 
Cu     15.10349689       8.75996201      11.57075346       29      -0.00056654      -0.00154978       0.00033088 
Cu     10.90125000       8.93900788      11.00038081       29      -0.00274097      -0.00219576       0.00138075 
Cu      6.85172219       9.10745823      10.48130575       29      -0.00295059       0.00309229       0.00164921 
Cu     12.31159836      10.96711754      11.22290342       29       0.00012811       0.00328733       0.00026454 
Cu      5.61106961      11.25386515      10.36934967       29       0.00418548      -0.00134175       0.00392672 
Cu      4.40620027      13.41124970      10.24061474       29      -0.00202598       0.00265135       0.00135009 
Cu     13.69440425      13.01069645      11.41625626       29      -0.00116085      -0.00062963       0.00375502 
Cu     10.06624304       2.70051412       9.58945581       29       0.00102895       0.00047975      -0.00271091 
Cu      7.49924715       2.80947136       9.26184597       29      -0.00345842      -0.00440679      -0.00437376 
Cu     12.58562290       2.67715885       9.91000608       29      -0.00227828       0.00180147      -0.00033299 
Cu      4.98206041       2.99831245       8.93956267       29      -0.00011151       0.00387169       0.00078966 
Cu      8.86687296       4.86296681       9.44175283       29       0.00287249      -0.00196298      -0.00192401 
Cu     11.39222300       4.81492004       9.77229490       29      -0.00043691      -0.00300252      -0.00228391 
Cu      6.34845168       5.02980319       9.11673743       29       0.00024079      -0.00168111      -0.00004496 
Cu     14.46220680       6.67807679      10.17497714       29      -0.00020547       0.00100539      -0.00221169 
Cu      3.43822923       7.15072352       8.75971260       29       0.00205588      -0.00281090       0.00434942 
Cu     10.20663524       6.94061312       9.63198660       29      -0.00038429       0.00008800       0.00008360 
Cu      7.70414830       7.03884216       9.28879877       29       0.00207423       0.00331894       0.00122596 
Cu     13.17709758       8.85661319      10.01852744       29      -0.00142288       0.00138340       0.00317650 
Cu      4.89052614       9.21207811       8.96004245       29       0.00683167      -0.00031237       0.00267844 
Cu      9.03581669       9.03049735       9.48880981       29       0.00209345      -0.00062543       0.00500939 
Cu     10.37316925      11.01835218       9.67525756       29       0.00236666      -0.00103665      -0.00370156 
Cu      7.87152776      11.12783732       9.35769836       29      -0.00079700       0.00014388       0.00025887 
Cu     14.63693537      10.91897080      10.21759839       29      -0.00376653       0.00017208       0.00362378 
Cu      3.61197245      11.39270717       8.81902595       29      -0.00131047       0.00268059      -0.00017182 
Cu     11.73084267      13.03613401       9.86141059       29      -0.00167960      -0.00164499       0.00460534 
Cu      6.68914724      13.25629787       9.22559569       29       0.00108769      -0.00329624      -0.00351622 
Cu      9.21334903      13.20664588       9.54551703       29      -0.00127543       0.00147359      -0.00287987 
Cu      5.49954388      15.39640985       9.09301914       29      -0.00066362       0.00052787      -0.00061572 
Cu     13.09539507      15.06604671      10.05104800       29      -0.00133688      -0.00403874      -0.00116391 
Cu      8.01921668      15.37074666       9.41243788       29       0.00096265      -0.00056607      -0.00120887 
Cu     10.58436253      15.25912852       9.73396188       29      -0.00042349      -0.00252255       0.00262611 
Cu     13.67733949       4.66014733       8.75755544       29       0.00022301      -0.00459110      -0.00130818 
Cu      4.38627307       5.05311137       7.56332387       29      -0.00080829       0.00371417       0.00107756 
Cu     12.46880913       6.81336149       8.61756106       29      -0.00360597       0.00337202       0.00210110 
Cu      5.76663527       7.09834794       7.75370211       29       0.00305150       0.00223463      -0.00115831 
Cu     11.21966765       8.95186458       8.49474652       29       0.00258371      -0.00035540      -0.00130457 
Cu      7.16874471       9.13416592       7.98490689       29      -0.00165575       0.00083235      -0.00317022 
Cu     15.43123511       8.77722879       9.00214434       29       0.00165675      -0.00183211      -0.00000370 
Cu      2.96526174       9.31306130       7.39897423       29       0.00194560       0.00024667       0.00046743 
Cu     12.63712287      10.98404011       8.66265687       29      -0.00070095      -0.00118019       0.00250751 
Cu      5.93427996      11.27901662       7.81258483       29       0.00169041       0.00022485      -0.00200491 
Cu      4.73005490      13.43605935       7.67504350       29      -0.00141297      -0.00067402       0.00113982 
Cu     14.02051594      13.02965478       8.84802823       29      -0.00167149      -0.00155781       0.00010503 
Cu     11.65319435       3.46099425       7.68203962       29      -0.00136875       0.00109530       0.00186716 
Cu      6.50705646       3.66885568       7.04268834       29      -0.00378875       0.00143125       0.00358375 
Cu      9.09408459       3.49554880       7.33816651       29       0.00170384      -0.00087103       0.00269888 
Cu     10.45369430       5.62252830       7.55487246       29      -0.00440813      -0.00051481      -0.00034822 
Cu      7.89006000       5.69130120       7.17782172       29       0.00152705      -0.00174415      -0.00249349 
Cu      9.23788895       7.77493434       7.45055140       29       0.00480815      -0.00132541      -0.00245499 
Cu      9.34970098      10.30590185       7.48156642       29       0.00061333       0.00077285       0.00186605 
Cu     10.72144122      12.36789450       7.62371758       29      -0.00052941       0.00031115      -0.00259502 
Cu      8.16644305      12.48255037       7.30417614       29      -0.00007136       0.00167102       0.00320179 
Cu      6.96866645      14.64629896       7.16256721       29      -0.00115347       0.00076999      -0.00108962 
Cu     12.09735643      14.41845796       7.80680489       29      -0.00041045      -0.00122753      -0.00062056 
Cu      9.53888250      14.60419943       7.45673574       29      -0.00022665      -0.00121695      -0.00152755 
Cu     14.72053182       6.72627322       7.59660518       29       0.00124467      -0.00249227      -0.00290181 
Cu      3.83066467       7.19225440       6.21067658       29       0.00233061       0.00322117       0.00138971 
Cu     13.43793613       8.87506399       7.48708645       29      -0.00435128      -0.00294257       0.00097349 
Cu      5.27406594       9.23350125       6.45153116       29       0.00219098       0.00136414       0.00180675 
Cu     14.88961853      10.91188391       7.64018102       29      -0.00083281      -0.00089872       0.00135866 
Cu      4.00045912      11.38702308       6.26751892       29       0.00050768       0.00338020      -0.00212668 
Cu     12.74592085       5.47984385       6.48140657       29       0.00078497      -0.00016747       0.00195852 
Cu      7.34050110       7.86984274       5.86913055       29       0.00298698       0.00367694      -0.00031540 
Cu     11.47520106       7.66979808       6.38773761       29       0.00018136       0.00048240       0.00349595 
Cu      7.67315923       9.18300188       3.73849767       29      -0.00426934       0.00024281      -0.00107680 
Cu     11.59192320      10.25832420       6.42022854       29      -0.00336949       0.00068886      -0.00074119 
Cu      7.45071044      10.44843871       5.90121563       29      -0.00355747       0.00123867       0.00019667 
Cu     13.02081095      12.34547200       6.56007645       29       0.00004160       0.00087130       0.00183632 
Cu      6.21084804      12.65570561       5.70528484       29       0.00051310       0.00265799      -0.00045060 
Cu     15.66967432       8.79546828       6.47353982       29       0.00087347       0.00028591       0.00098815 
Cu      3.40156323       9.33165953       4.86178803       29       0.00261823      -0.00197668       0.00111628 
Cu     10.67199807       4.34731179       5.45829009       29      -0.00180904       0.00041414      -0.00097544 
Cu      5.93467195       5.77296766       5.61693925       29      -0.00134480      -0.00156542      -0.00390995 
Cu      9.41737975       6.49639920       5.37652792       29       0.00129673      -0.00067224      -0.00214178 
Cu      9.97516301      12.90567516       3.38794500       29       0.00048793      -0.00286092      -0.00148150 
Cu      9.90023720      10.37195845       3.27444027       29      -0.00021146       0.00449749      -0.00454953 
Cu     11.91714313      11.57477465       4.35106496       29       0.00196032      -0.00123677      -0.00280513 
Cu      5.69349942       9.26163630       2.33120860       29       0.00001679       0.00098242       0.00216876 
Cu      9.79306187       7.78932225       3.24411531       29       0.00010277      -0.00436931      -0.00001165 
Cu     11.85677257       8.98382805       4.24965348       29      -0.00141871      -0.00177021      -0.00272809 
Cu      7.74900553      11.74381925       3.80059612       29       0.00073739      -0.00111703      -0.00038205 
Cu     11.04121872      13.68832839       5.55720617       29       0.00114217      -0.00146965      -0.00033727 
Cu      7.53582921       6.64377364       3.72130275       29       0.00269696      -0.00026290       0.00327878 
Cu      9.64974818       5.26923724       3.31144626       29      -0.00229417       0.00096824       0.00039828 
Cu     11.69237187       6.39728240       4.29012487       29       0.00041715       0.00088458      -0.00004437 
Cu      5.52395603      10.58786967       4.36368374       29       0.00150536       0.00308009       0.00276283 
Cu     13.72947754       7.59160286       5.36159045       29      -0.00139376       0.00033565      -0.00200956 
Cu      8.47528786      13.79572882       5.23029863       29       0.00192322       0.00149518      -0.00067632 
Cu     13.84173725      10.18394093       5.39007876       29      -0.00192676       0.00140015      -0.00063981 
Cu      9.65890428      11.60050636       5.43761924       29       0.00040146      -0.00353393       0.00135797 
Cu      5.41178597       7.92047642       4.33332207       29      -0.00507891      -0.00593014      -0.00183593 
Cu      9.58162491       9.05349634       5.35845654       29       0.00231047      -0.00119039       0.00144054 
