147
Lattice="17.9693914692 0.0 0.0 0.0 17.9693914692 0.0 0.0 0.0 17.9693914692" Properties=species:S:1:pos:R:3:Z:I:1:forces:R:3 energy=-459.761205884 pbc="F F F"
Cu      9.10172672       8.44664307      15.39042130       29      -0.00192418      -0.00025411      -0.00083827 
Cu      6.86450203       9.45372730      14.53425312       29       0.00137495       0.00035846      -0.00270162 
Cu      8.85920804      10.99412688      15.09477786       29      -0.00208551       0.00249798      -0.00072145 
Cu      7.12616461       6.89655671      14.75404142       29       0.00216984       0.00126959      -0.00043170 
Cu      4.69470066      10.45522050      13.53286111       29       0.00072166      -0.00002146      -0.00127302 
Cu      4.92345139       7.90391607      13.82464261       29       0.00006527      -0.00107068      -0.00125624 
Cu     11.08496909      10.01645908      15.90411117       29      -0.00111900      -0.00201720       0.00004864 
Cu      6.66731164      12.01019462      14.16130166       29      -0.00122031      -0.00083618      -0.00445085 
Cu     11.50314221       7.75321634      14.77373454       29       0.00118014      -0.00031953      -0.00055201 
Cu      6.44633403       6.57521050      12.38894567       29       0.00476581      -0.00069884       0.00022085 
Cu      8.94001153      12.98188006      13.40240772       29      -0.00029721      -0.00022157       0.00213943 
Cu      3.56144510      11.41855000      11.41021316       29      -0.00138120      -0.00089320      -0.00012138 
Cu      3.71547423       8.85671569      11.74701734       29      -0.00063864      -0.00073353      -0.00183927 
Cu      4.53186974      12.96424653      13.17498425       29       0.00011303       0.00026472      -0.00439311 
Cu      9.54071557       6.17340811      14.20832136       29       0.00638756       0.00145680      -0.00129373 
Cu      6.75344039      13.93337332      12.41907796       29      -0.00117255       0.00105825       0.00068429 
Cu      7.56759662       4.66542483      13.50195436       29       0.00117376       0.00071087      -0.00109379 
Cu      4.01219314       6.30248950      12.00034961       29       0.00078553       0.00097481       0.00079337 
Cu     13.47858356      12.08486447      14.71603431       29       0.00327993       0.00180062      -0.00123494 
Cu      6.21056933       9.10962287      12.11001928       29       0.00244726       0.00108894      -0.00008793 
Cu     13.05670556      10.07987849       4.14972046       29      -0.00029944      -0.00284923       0.00160372 
Cu     12.78334496      12.59326743       3.91817527       29      -0.00238149       0.00141310       0.00021066 
Cu     13.27842298       7.51863010       4.45118254       29       0.00105077      -0.00019332       0.00118274 
Cu     11.10909734       8.52184951       3.45029656       29       0.00065022       0.00071707       0.00100770 
Cu     10.85869301      11.09011310       3.22267195       29      -0.00098454      -0.00197383       0.00152216 
Cu     13.44022861       5.00995037       4.80950842       29      -0.00093764       0.00077479       0.00087215 
Cu     11.30362039       5.96582181       3.82396732       29       0.00058551      -0.00310967      -0.00002650 
Cu      8.88381462       9.53807268       2.59594890       29      -0.00103115      -0.00153289       0.00383608 
Cu      9.10695767       6.97507203       2.89715276       29      -0.00182466      -0.00200072      -0.00183638 
Cu      6.93548436       7.99755780       2.06528030       29       0.00220905      -0.00138119       0.00109482 
Cu     14.25978137       9.12059014       6.23504098       29      -0.00052425      -0.00254536      -0.00036380 
Cu     13.96893049      11.68080550       5.96920337       29      -0.00040872      -0.00042095       0.00169692 
Cu     14.41116898       6.55739550       6.57405198       29      -0.00112963      -0.00013550      -0.00008915 
Cu     10.41113934      13.31360684       4.47174018       29      -0.00065549       0.00290275      -0.00027582 
Cu      8.42863280      11.79893625       3.77628659       29      -0.00049510      -0.00178419       0.00037025 
Cu     11.21453422       4.04254384       5.55811998       29       0.00082145       0.00209028       0.00230807 
Cu      9.01945326       4.99966827       4.57309035       29      -0.00247990       0.00091887       0.00030745 
Cu      6.46046923      10.20854342       3.21930014       29       0.00069870       0.00001625       0.00028803 
Cu     11.76405405       8.86202815       5.87427879       29       0.00157958      -0.00145453      -0.00231037 
Cu     11.50629718      11.37988138       5.62460197       29      -0.00231682       0.00223489      -0.00053108 
Cu      6.82195763       6.06139316       3.70509531       29      -0.00226423      -0.00080716       0.00223223 
Cu     11.94123316       6.34764174       6.21548170       29       0.00292491      -0.00295162       0.00087176 
Cu      9.57419128       9.86809463       4.95004921       29       0.00010060       0.00080423       0.00070997 
Cu      9.79609990       7.31391995       5.24915796       29      -0.00252381       0.00197393       0.00756358 
Cu     12.33249949      13.68165131       6.16758676       29      -0.00228152      -0.00128986      -0.00084182 
Cu      7.62651046       8.32975516       4.39441538       29      -0.00170390       0.00254521       0.00460496 
Cu     13.13427013       4.40859535       7.25756950       29       0.00195701       0.00062172      -0.00040026 
Cu     15.09987560      10.71901625       8.09318857       29      -0.00329081      -0.00022971      -0.00022352 
Cu     15.31929698       8.15909110       8.39790439       29       0.00008525       0.00050937      -0.00097198 
Cu      5.18569828       8.05969591       3.90461552       29       0.00062826      -0.00023289       0.00152624 
Cu      7.98909467      13.98613108       5.09337627       29      -0.00144884      -0.00013305      -0.00203054 
Cu     12.67313588      10.45714600       7.68643443       29       0.00132802      -0.00069848      -0.00011118 
Cu     12.89288041       7.90528603       7.98846298       29       0.00445242      -0.00300449       0.00378355 
Cu      6.01337342      12.43225608       4.46623661       29       0.00012977       0.00096230       0.00156242 
Cu      8.93003013       3.13021232       6.36571776       29      -0.00162380       0.00011177       0.00089520 
Cu      6.73329379       4.14041332       5.43947325       29      -0.00064244      -0.00104025      -0.00015106 
Cu      9.12794602      12.08524382       6.19462229       29      -0.00064269      -0.00118253      -0.00134409 
Cu     13.52669479      12.77112349       8.27423723       29      -0.00100041      -0.00048737      -0.00026301 
Cu      9.70759922       5.39792441       6.97871242       29      -0.00110014       0.00220522       0.00128170 
Cu     14.11363586       5.97007079       9.07876649       29       0.00166280       0.00028192       0.00032335 
Cu      7.15982976      10.53736247       5.57040099       29      -0.00172452      -0.00266732      -0.00145268 
Cu      9.92106834      14.42539763       6.76036452       29      -0.00012894       0.00005033       0.00005928 
Cu      7.51878002       6.40435063       6.05500283       29       0.00114298       0.00086222       0.00173224 
Cu     10.23536552      10.17361920       7.32115765       29      -0.00110012      -0.00001234      -0.00038007 
Cu     16.13169353       9.75157748      10.20605498       29       0.00014262       0.00007694      -0.00052513 
Cu     10.45163950       7.67642925       7.61415944       29      -0.00295335      -0.00220210       0.00282840 
Cu     10.87397500       3.42175368       8.05156333       29      -0.00176443       0.00061661       0.00020309 
Cu      8.31119079       8.66033036       6.71148779       29       0.00014745      -0.00138905      -0.00319746 
Cu     11.04082634      12.45174349       7.88335836       29       0.00376612       0.00081384       0.00085320 
Cu      4.68153295      10.30161610       5.10004931       29       0.00100838      -0.00011541       0.00120084 
Cu     11.62084888       5.76239263       8.67149723       29      -0.00287796       0.00517405      -0.00005664 
Cu      5.04660227       6.09993350       5.59369181       29      -0.00134114       0.00064291      -0.00284140 
Cu     11.82912353      14.71794763       8.48746839       29       0.00055710      -0.00066608       0.00136375 
Cu     13.72938711       9.49561495       9.79782264       29       0.00448097       0.00063135      -0.00083765 
Cu      5.61177480      14.58148050       5.75855527       29       0.00050731      -0.00284045       0.00064251 
Cu     12.76765402       3.86082338       9.76066316       29       0.00214859      -0.00349330       0.00314480 
Cu      5.88925003       8.39607688       6.25365649       29      -0.00028591       0.00256096      -0.00161537 
Cu     14.60060123      11.76391254      10.40634229       29       0.00303789      -0.00229352       0.00184949 
Cu      6.67555432       2.30907619       7.19842629       29      -0.00102731       0.00193776       0.00084440 
Cu     14.95311646       7.61649028      10.90350857       29       0.00220061      -0.00319622      -0.00010068 
Cu      6.74718779      12.69901153       6.84595395       29      -0.00319803       0.00396028      -0.00024743 
Cu     11.33863646       9.23673831       9.38577717       29      -0.00041241      -0.00362624       0.00131310 
Cu      7.45306474       4.55492519       7.80197408       29      -0.00223526       0.00042235       0.00091551 
Cu      3.46395787       8.13636075       5.83711853       29      -0.00164137       0.00167560       0.00156081 
Cu      7.48678742      15.02426465       7.41261261       29       0.00252866      -0.00031394       0.00152475 
Cu      7.87385361      10.82803182       7.92748272       29       0.00210377      -0.00086619       0.00251190 
Cu     12.17062317      11.49303639       9.98513149       29      -0.00304240       0.00022033      -0.00227765 
Cu      8.22445837       6.78694002       8.40265411       29       0.00464618       0.00110808      -0.00031389 
Cu     12.52847086       7.35590122      10.48228409       29      -0.00369356      -0.00458137      -0.00215524 
Cu      8.56424022       2.58319216       8.87222426       29       0.00168763      -0.00030442      -0.00062359 
Cu      4.29078685      12.50882222       6.39859630       29       0.00048885       0.00044971       0.00206633 
Cu      8.62853484      13.12052715       8.50578656       29      -0.00174491       0.00067712       0.00043752 
Cu     12.96881164      13.75967385      10.60353440       29       0.00077847      -0.00091745       0.00052851 
Cu      8.98321509       8.98393061       8.99467124       29       0.00174559      -0.00049479       0.00005880 
Cu      5.00891097       4.21691321       7.37186319       29       0.00070845       0.00133966       0.00062593 
Cu      9.34425108       4.85281133       9.47719533       29      -0.00064994       0.00130145      -0.00238705 
Cu     13.68092642       5.45635079      11.57868268       29       0.00166035       0.00191336      -0.00208923 
Cu      9.40916438      15.38840849       9.11241412       29      -0.00026194      -0.00117310      -0.00003735 
Cu      5.44229964      10.61308541       7.49663174       29      -0.00142594       0.00245270       0.00053182 
Cu      9.74456359      11.18509347       9.57849374       29       0.00230845       0.00117236       0.00182569 
Cu      5.80111073       6.48098935       7.98084513       29      -0.00257473       0.00070593       0.00404009 
Cu     10.09520118       7.14374746      10.05853629       29       0.00538612      -0.00361123      -0.00080618 
Cu     10.48350750       2.94734801      10.57024202       29      -0.00078368       0.00032936      -0.00319293 
Cu     14.51044636       9.85678712      12.16559451       29      -0.00082116      -0.00108116      -0.00012772 
Cu     10.52296625      13.41707657      10.18433744       29       0.00172066      -0.00042526       0.00474407 
Cu      6.63189713       8.73426751       8.59658883       29       0.00104940       0.00360736      -0.00116563 
Cu     11.22323588       5.27189613      11.13847892       29      -0.00016245       0.00340622      -0.00305798 
Cu      3.01534093      10.36227120       7.08288866       29       0.00125789      -0.00113879       0.00250961 
Cu     11.30078224      15.66031528      10.78885255       29      -0.00012635       0.00176573       0.00162719 
Cu      3.37481677       6.21597101       7.57144781       29       0.00022251       0.00041185      -0.00111430 
Cu     12.08314142       9.56988338      11.72312322       29      -0.00159131       0.00003529      -0.00060170 
Cu      5.20189731      14.11047071       8.22007495       29      -0.00186183       0.00106119      -0.00054730 
Cu     12.35714414       3.38787230      12.22378471       29       0.00015049       0.00060827      -0.00138647 
Cu      4.24275122       8.48130605       8.19222576       29      -0.00441890      -0.00026714       0.00209501 
Cu      6.14194786       3.25826490       9.49437482       29      -0.00065695       0.00163189      -0.00234823 
Cu     12.91536192      11.86610522      12.35491457       29      -0.00053431      -0.00237353      -0.00134184 
Cu      6.34964468      12.20955523       9.31142281       29       0.00268771      -0.00178878       0.00018629 
Cu     13.29338402       7.65188351      12.87417393       29       0.00100102      -0.00037954       0.00278835 
Cu      6.93080861       5.52662167      10.09783442       29      -0.00354406      -0.00077490      -0.00003912 
Cu      9.65937324       9.31123328      11.27349373       29       0.00093119      -0.00135331       0.00123813 
Cu      7.09770009      14.55252380       9.92948458       29       0.00134473      -0.00263396       0.00029291 
Cu      7.51910343      10.29398437      10.37162996       29       0.00024024       0.00463682      -0.00063848 
Cu      1.83769794       8.22549451       7.78788096       29       0.00218401       0.00052586      -0.00417167 
Cu      7.73056092       7.79243529      10.67271120       29       0.00234522       0.00629385       0.00103942 
Cu     10.44842945      11.57007791      11.92037836       29      -0.00142541      -0.00013087      -0.00085090 
Cu      8.05009595       3.54970854      11.21952473       29       0.00162848       0.00064951       0.00018409 
Cu     10.81319795       7.43391076      12.41622773       29      -0.00007054       0.00246740      -0.00246025 
Cu      3.85790953      12.00337552       8.90284971       29       0.00166709      -0.00001720      -0.00224559 
Cu      8.26095627      12.57477622      10.99971832       29       0.00064865       0.00321241      -0.00094788 
Cu      4.44805127       5.20780549       9.69933117       29       0.00088403      -0.00179821      -0.00185852 
Cu      8.84134646       5.88933067      11.78956802       29       0.00090332       0.00073532       0.00105962 
Cu     11.26367662      13.82863675      12.55705705       29      -0.00155544      -0.00086710      -0.00052773 
Cu      9.04897709      14.83862860      11.61812332       29      -0.00134293       0.00172953      -0.00027771 
Cu     11.95547753       5.53443724      13.51794299       29       0.00117535      -0.00154418      -0.00086710 
Cu      5.07919148      10.07045658       9.99471902       29      -0.00015894      -0.00134333      -0.00159648 
Cu      5.30457126       7.51652911      10.29621248       29      -0.00539477      -0.00129896      -0.00158865 
Cu      9.97887159       3.98559836      12.88960490       29       0.00316374       0.00099981      -0.00041787 
Cu     12.79152690       9.85089088      14.06847113       29      -0.00070936       0.00256311       0.00075442 
Cu      2.65058485       9.81899297       9.58956594       29       0.00227142      -0.00323812       0.00002532 
Cu      2.87497452       7.25651305       9.89280348       29       0.00216524      -0.00179796      -0.00243414 
Cu      4.83653838      13.56377074      10.72409500       29      -0.00154065       0.00080427       0.00078572 
Cu     10.34822337       9.64374000      13.58887917       29      -0.00001489       0.00148811       0.00037365 
Cu      5.64692774       4.30250136      11.80065137       29       0.00136733      -0.00229121      -0.00014471 
Cu      8.17769832      10.66142539      12.73676360       29      -0.00181936      -0.00246994      -0.00337500 
Cu      8.39980271       8.10612846      13.03489702       29      -0.00692141      -0.00087987      -0.00491158 
Cu      6.03095277      11.62509379      11.76952913       29      -0.00072053       0.00403549      -0.00087409 
Cu     11.09870914      11.92783510      14.27223327       29      -0.00543188      -0.00316633       0.00320722 
