147
Lattice="18.69704175 0.0 0.0 0.0 18.69704175 0.0 0.0 0.0 18.69704175" Properties=species:S:1:pos:R:3:Z:I:1:forces:R:3 energy=-459.716064394 pbc="F F F"
Cu      9.32928251       5.90214062      14.71469947       29       0.00028485       0.00450874       0.00174931 
Cu      8.14896461       7.74507681      16.03425307       29       0.00208570      -0.00116983       0.00291201 
Cu     10.75336507       7.62143508      15.95620659       29       0.00205161      -0.00068595       0.00061784 
Cu      7.47008867      10.23947767      16.00601820       29       0.00137468      -0.00057677      -0.00731695 
Cu      6.77791798       5.96169114      14.76284775       29      -0.00210814      -0.00390808       0.00233332 
Cu      5.37101937      10.98604474      14.71041147       29       0.00464541       0.00113370       0.00346030 
Cu     12.87540434       8.14791735      14.59082764       29      -0.00349717       0.00098020       0.00181200 
Cu     11.66184861      10.03944919      15.87645640       29       0.00070499       0.00123828       0.00130179 
Cu      6.01058255       8.47307867      14.79928810       29      -0.00247358       0.00144023      -0.00346335 
Cu      9.63771955      11.65733091      15.91279047       29       0.00010207       0.00058234      -0.00178899 
Cu     11.87346969       5.71970552      14.61081626       29       0.00156111       0.00142919      -0.00111531 
Cu      7.51047349      12.45533082      14.67910110       29      -0.00089648      -0.00438997      -0.00011166 
Cu      9.49853562       9.43417800      14.82184912       29      -0.00035290       0.00353495      -0.00634200 
Cu     13.74078801      10.58924910      14.45813776       29       0.00134398       0.00813863      -0.00008497 
Cu     11.75298027      12.25386747      14.54978246       29       0.00179710      -0.00247654       0.00377052 
Cu      9.24813175       3.60435446      15.36700693       29      -0.00267641      -0.00251209      -0.00234736 
Cu      9.69949234      13.83077104      14.52571006       29      -0.00032557       0.00125790       0.00129913 
Cu      9.12813951       9.21509077       2.66278868       29      -0.00097546       0.00103608      -0.00054133 
Cu     10.54527250      10.95455529       3.85268169       29      -0.00427900       0.00383729      -0.00225328 
Cu     11.22739397       8.45799786       3.87341191       29      -0.00084613       0.00178737       0.00309062 
Cu      7.95823539      11.07888662       3.92980949       29      -0.00342056       0.00300764      -0.00046540 
Cu      9.06247971       7.03650495       3.96448524       29      -0.00158078       0.00513980       0.00033366 
Cu      7.04147491       8.65837635       3.99945560       29      -0.00217471       0.00157821       0.00348725 
Cu     12.68986012      10.21392585       5.09876171       29       0.00087138      -0.00068406       0.00148529 
Cu     11.96156312      12.69888226       5.13984434       29      -0.00134361      -0.00001055      -0.00251604 
Cu      9.37649668      12.86694688       5.15309914       29      -0.00223757       0.00314495      -0.00027360 
Cu      9.20238178       9.25788311       5.11344974       29      -0.00007667       0.00295001      -0.00114337 
Cu     13.32853631       7.70617259       5.18537467       29      -0.00015568       0.00033955       0.00130787 
Cu      6.78991912      12.94518490       5.29378178       29      -0.00180494       0.00171166       0.00027613 
Cu     11.18834724       6.24388586       5.21376849       29      -0.00203347      -0.00125446      -0.00026219 
Cu      5.82728651      10.54125216       5.30447473       29      -0.00086584      -0.00114589      -0.00250344 
Cu      6.94661852       6.44627515       5.34021200       29      -0.00194446      -0.00026273       0.00170831 
Cu      8.99838799       4.86385068       5.36646575       29       0.00176035       0.00133718      -0.00170465 
Cu      4.95740119       8.10524738       5.43637242       29       0.00052061       0.00076838      -0.00134839 
Cu     10.61452481      10.99431935       6.32564031       29      -0.00490359       0.00188626      -0.00329823 
Cu     11.29476933       8.50616660       6.34707853       29      -0.00164674       0.00275277       0.00236679 
Cu     13.32415850      14.37579933       6.47405175       29      -0.00206679       0.00171490      -0.00033539 
Cu     14.06359648      11.94717547       6.45287090       29      -0.00129584      -0.00073675      -0.00634042 
Cu      8.03589848      11.11769871       6.40282031       29       0.00214761       0.00013296      -0.00175082 
Cu     10.79149871      14.56492601       6.50359228       29       0.00101454       0.00343964      -0.00271272 
Cu     14.74679338       9.44993566       6.47526347       29      -0.00084402      -0.00004318      -0.00159930 
Cu      9.13665241       7.08954042       6.43776437       29       0.00329448       0.00556313       0.00287954 
Cu      8.20723461      14.68791057       6.58077074       29      -0.00092429       0.00000567       0.00077859 
Cu      7.12260861       8.70516453       6.47302523       29       0.00216581       0.00064053      -0.00107629 
Cu     15.34850640       6.98417725       6.54511803       29      -0.00136267       0.00123103      -0.00075275 
Cu     13.26569222       5.53149759       6.58821012       29       0.00189844      -0.00042048      -0.00288162 
Cu      5.67167996      14.73916961       6.70398977       29      -0.00102162      -0.00141653      -0.00226141 
Cu      4.70522878      12.39146229       6.73031259       29      -0.00095760      -0.00246430       0.00006251 
Cu     11.10100744       4.11111911       6.67771290       29       0.00184565      -0.00165706      -0.00467769 
Cu      3.78998968       9.97079325       6.80239491       29       0.00068406       0.00265531      -0.00011682 
Cu      6.91483390       4.31031898       6.80224716       29      -0.00180443      -0.00056122      -0.00097488 
Cu      4.89457789       5.93082748       6.83799037       29       0.00343289      -0.00407355       0.00052620 
Cu      8.94167491       2.77891567       6.81070702       29       0.00111740      -0.00256184      -0.00261808 
Cu      2.96069739       7.57425158       6.91619298       29       0.00092983      -0.00200618      -0.00320461 
Cu      9.27521048       9.30333776       7.54966024       29       0.00352560      -0.00093204      -0.00083243 
Cu     11.98725023      12.68458988       7.64278105       29       0.00005477      -0.00260412       0.00271226 
Cu     12.70873934      10.24507057       7.63129033       29      -0.00524896      -0.00191284       0.00166120 
Cu      9.44887735      12.85452215       7.68491779       29      -0.00304698       0.00123933       0.00154759 
Cu     13.32976502       7.77887441       7.68879080       29       0.00340736       0.00013093      -0.00313985 
Cu      6.90755840      12.92455260       7.79489425       29       0.00238383       0.00371263       0.00263656 
Cu     11.23183963       6.33873905       7.74501380       29      -0.00112331       0.00657842       0.00068537 
Cu      5.95947868      10.56588371       7.83384711       29      -0.00343727      -0.00406285       0.00171016 
Cu      7.06101527       6.53766019       7.87055562       29      -0.00383973       0.00122643      -0.00295002 
Cu      9.07794986       4.98794557       7.86691572       29       0.00473795      -0.00219551      -0.00213268 
Cu      5.10946861       8.17022587       7.93526214       29       0.00578654      -0.00122923       0.00222774 
Cu     14.19275757      13.34898510       8.62715653       29       0.00020194      -0.00229276      -0.00151550 
Cu     12.17113656      14.96558096       8.65892778       29      -0.00066570       0.00131211      -0.00205414 
Cu     14.95020442      10.87134707       8.63251478       29       0.00324008      -0.00386537       0.00218874 
Cu      9.58959075      15.16341996       8.71856547       29      -0.00332080       0.00113989       0.00053255 
Cu     15.56092005       8.35317356       8.67390251       29      -0.00162319      -0.00223883       0.00185472 
Cu      7.00078158      15.21021083       8.81483354       29       0.00038648      -0.00051769      -0.00295761 
Cu     10.65787124      11.00270148       8.80413683       29       0.00111274      -0.00029434       0.00246168 
Cu     14.64785423       5.93096784       8.74565240       29      -0.00127765      -0.00157583      -0.00044574 
Cu     11.32364253       8.56942798       8.82612932       29       0.00330971      -0.00178693      -0.00173154 
Cu      4.83678473      13.78909179       8.90704455       29       0.00206337       0.00041979      -0.00048166 
Cu      8.13711926      11.12202033       8.88097797       29       0.00342157       0.00316760      -0.00446361 
Cu     12.52768838       4.44551523       8.81546147       29       0.00077143      -0.00224261       0.00207703 
Cu      9.21495919       7.18403431       8.91518970       29       0.00325642      -0.00144097       0.00038501 
Cu      3.84969694      11.39470201       8.96558505       29      -0.00077794       0.00134469      -0.00094564 
Cu      7.24568785       8.76299652       8.94940734       29      -0.00226494      -0.00161514      -0.00102099 
Cu     10.32122992       3.08721725       8.91899878       29       0.00003532      -0.00237858       0.00120443 
Cu      3.00648409       8.94683505       9.05105858       29      -0.00040366       0.00066137       0.00190294 
Cu      7.72875675       3.20863835       8.99762099       29       0.00029809      -0.00043259      -0.00144900 
Cu      5.65985850       4.77053784       9.02243175       29       0.00026603      -0.00041830      -0.00182485 
Cu      3.68965539       6.44990695       9.07383960       29       0.00128080      -0.00151075      -0.00014497 
Cu     12.83823994      11.64074413       9.79931320       29       0.00139801      -0.00042869       0.00172087 
Cu     10.82311222      13.25312456       9.83281567       29       0.00257224       0.00100428      -0.00249826 
Cu     13.51954122       9.15113960       9.82132223       29       0.00544432       0.00052103       0.00371164 
Cu      8.24689928      13.37491801       9.91031907       29      -0.00037498       0.00100465      -0.00089547 
Cu     12.60816180       6.73600613       9.89323705       29       0.00339787      -0.00032690       0.00274133 
Cu      9.34916366       9.34722266       9.95067686       29       0.00295741       0.00297122       0.00692063 
Cu      6.09017589      11.95871697      10.00368071       29      -0.00046938       0.00389752      -0.00421401 
Cu     10.45308248       5.31908469       9.98272014       29       0.00088325       0.00054965       0.00328081 
Cu      5.17824087       9.54512016      10.07415684       29      -0.00083179       0.00023256      -0.00320086 
Cu      7.87358859       5.44031167      10.06103849       29      -0.00126649      -0.00233410      -0.00147721 
Cu      5.86016403       7.05547338      10.09641538       29      -0.00027142       0.00071136       0.00185916 
Cu     15.00708189      12.25130875      10.82395353       29      -0.00006987      -0.00111557      -0.00093283 
Cu     13.03387133      13.92927035      10.86948616       29       0.00467792      -0.00199817       0.00053629 
Cu     10.96625642      15.48648432      10.88937224       29      -0.00121266       0.00119376       0.00233996 
Cu     15.69037685       9.75207419      10.84833375       29       0.00112202      -0.00416505      -0.00473926 
Cu      8.38214579      15.60833674      10.96680054       29      -0.00433860       0.00162504       0.00245670 
Cu     11.45253260       9.93330203      10.94711723       29      -0.00513186      -0.00111032      -0.00038722 
Cu     14.84972640       7.30159105      10.93458049       29       0.00153732      -0.00120972      -0.00073503 
Cu      9.48274670      11.51026205      10.98054844       29       0.00094357       0.00511494      -0.00115020 
Cu      6.17570635      14.25266735      11.07648962       29      -0.00199017       0.00026735      -0.00329564 
Cu     10.56115664       7.57279104      11.01510343       29       0.00178311      -0.00520731      -0.00093422 
Cu     13.86480462       4.90890807      10.99156227       29      -0.00121433       0.00117153       0.00328006 
Cu      7.37461787      10.12539327      11.07054563       29      -0.00360991      -0.00359636       0.00635817 
Cu      4.05275414      12.76780873      11.15361423       29       0.00291643      -0.00191652      -0.00208116 
Cu      8.04156235       7.69046405      11.09017511       29      -0.00459642       0.00379744       0.00244866 
Cu     11.70924805       3.48397205      11.06759781       29      -0.00026510      -0.00176855       0.00087870 
Cu      3.13836197      10.34381977      11.22580819       29       0.00136994       0.00014562      -0.00188414 
Cu      9.11045152       3.52283301      11.15987842       29       0.00076604      -0.00077486       0.00254836 
Cu      3.74836951       7.82505651      11.26868007       29      -0.00001950      -0.00144941      -0.00060076 
Cu      6.51941457       3.72667511      11.22460629       29      -0.00032191       0.00255336       0.00144714 
Cu      4.50731672       5.35061602      11.27336505       29       0.00043724       0.00044421       0.00154516 
Cu     13.58833917      10.52904148      11.96095250       29      -0.00192730       0.00342044      -0.00395226 
Cu      9.61905517      13.70749392      12.02722200       29      -0.00227579       0.00089094      -0.00056325 
Cu     11.63663668      12.16011867      12.02305094       29       0.00249652       0.00059369       0.00130812 
Cu     12.74380270       8.13365312      12.05805587       29       0.00066735      -0.00461395       0.00000653 
Cu      7.46620118      12.35664177      12.14941401       29       0.00112121       0.00256008       0.00118075 
Cu     11.79134540       5.77030426      12.10206670       29       0.00015111       0.00194600       0.00122683 
Cu      5.36830887      10.91677010      12.20860522       29       0.00186270      -0.00076687      -0.00203954 
Cu      9.25192925       5.83512093      12.20809794       29      -0.00013501       0.00225990      -0.00259800 
Cu      5.98768569       8.45140939      12.26286289       29       0.00464187      -0.00054395      -0.00732084 
Cu      6.71595225       6.00866463      12.25425377       29      -0.00253129      -0.00181300       0.00333141 
Cu      9.42273806       9.39397823      12.35676852       29       0.00421504       0.00711236       0.00022520 
Cu     13.80191827      12.77058519      13.05611964       29      -0.00149192      -0.00219985       0.00090565 
Cu      9.75614345      15.91812608      13.08034805       29      -0.00230875       0.00007531      -0.00174331 
Cu     11.78169940      14.38904945      13.08930637       29       0.00224080       0.00244786      -0.00084894 
Cu     14.90936906       8.72799093      13.09500484       29       0.00146792      -0.00620524       0.00071920 
Cu      7.59767029      14.58718000      13.21484174       29      -0.00151855       0.00046703      -0.00220014 
Cu     13.98262185       6.30434846      13.17435639       29      -0.00082759      -0.00292216      -0.00084572 
Cu      5.43424448      13.16509570      13.30846239       29      -0.00081808       0.00026658      -0.00178892 
Cu     13.02752125       3.95279332      13.19397309       29       0.00209578      -0.00102808       0.00068901 
Cu      3.35195564      11.71174202      13.35434632       29      -0.00100139      -0.00305624      -0.00061332 
Cu     11.57521930       9.99392703      13.42052290       29      -0.00038177       0.00107306       0.00353735 
Cu      9.56126288      11.60262685      13.45590116       29      -0.00186151      -0.00314111       0.00047403 
Cu     10.49816616       3.98320123      13.28631402       29      -0.00342305      -0.00523522       0.00316088 
Cu      7.90641795       4.10480931      13.36588001       29      -0.00202044      -0.00298428       0.00924103 
Cu      3.95360150       9.24301192      13.42427539       29       0.00011574       0.00078643       0.00333883 
Cu      4.65256876       6.74311172      13.45539734       29      -0.00140205       0.00028447      -0.00111277 
Cu     10.67899767       7.59520510      13.48480915       29       0.00135472      -0.00436666       0.00276835 
Cu      7.40482851      10.19120789      13.54802790       29       0.00178541       0.00251324       0.00182700 
Cu      5.38279960       4.31253528      13.42369535       29      -0.00158145      -0.00171735       0.00224682 
Cu      8.07405897       7.71765879      13.56248261       29      -0.00001712      -0.00061773       0.00426465 
Cu     15.73634436      11.12888005      12.98055930       29      -0.00216319      -0.00656206       0.00505460 
