124
Lattice="1000.0 0.0 0.0 0.0 1000.0 0.0 0.0 0.0 1000.0" Properties=species:S:1:pos:R:3 pbc="F F F"
Cu      15.73001829      16.96844595      17.14928512
Cu      11.70261359      16.68589564       9.95017706
Cu      18.02773247      16.01689895       8.89922281
Cu      14.15300922      14.35017931      17.02480482
Cu       4.51568672      15.78846220      10.44794529
Cu       3.59789023      12.48000226      11.35548775
Cu       9.35144885       4.62223938       7.57043817
Cu       5.44886548       5.94069236       5.37209827
Cu      12.12009756      13.13803092       8.89803763
Cu      14.24704124      16.62534824      16.56799407
Cu       4.25492106       4.03851864      17.92481658
Cu       7.19938553      11.00681882      16.49001190
Cu      10.78235612      10.63077639      11.01507171
Cu      14.19075832       4.82910494      11.60026990
Cu      12.78980514      12.70393181       9.75748296
Cu       4.00066294       4.95907615       7.84392233
Cu      13.26567880       7.51099664       4.98873139
Cu      13.26989660       3.73728838      12.01915642
Cu       9.43380932      18.32875511      12.65231654
Cu      13.55975368       6.83064590      16.18181004
Cu      17.35990964      17.52252444      17.55763975
Cu      10.88151379      16.01404233       8.88535470
Cu       7.31605679      14.04117301      15.12649200
Cu      13.35525853      16.54063797      11.29672756
Cu       5.20935189       7.11060335      14.68256322
Cu       6.62734202       5.65973163      10.20139885
Cu      14.96810368      13.64913512      13.73430174
Cu      10.73642240       4.94262359      15.29492510
Cu      13.61982143      17.52173740      11.56786871
Cu       6.27182694       7.42303667      10.28943643
Cu      14.79967980      18.26494694       3.70139208
Cu       9.03210323      11.89648618      18.34720371
Cu      14.14424665      13.48831579      14.66663194
Cu      12.81245864      18.27564662       5.82091761
Cu       5.32297217      10.43283142      12.40829177
Cu      15.54174486      11.75528633       4.92838906
Cu      13.39611359       8.67707238      10.72441729
Cu       7.77351658      13.76953155       7.87870153
Cu      15.28137290      13.47682878       6.39572668
Cu       3.75115275       7.65743012       9.81157350
Cu      16.74215246       3.75804829      17.24971421
Cu       9.28298142      17.45520888      10.54942340
Cu       7.02698343       7.71062180       8.22374912
Cu      11.01365898       7.74874836       7.47599874
Cu      12.80643278      13.22001567       8.33390792
Cu       7.36848912       8.49067098      14.85060928
Cu      15.14453629       9.04014091      10.06952308
Cu      18.29855482      16.97473948      16.74440293
Cu      13.96001535      13.63180740      12.60259247
Cu      11.52641922       8.91097116      14.52538102
Cu      12.77446054       5.31044011       5.01813871
Cu       9.61871041       8.78974588      15.60372169
Cu       4.86329693       5.33369229       9.61368859
Cu       5.46130365       5.10275115       4.54385556
Cu       3.83318670      14.15037049      17.42820674
Cu       9.55163061      10.14000946       7.95699686
Cu      11.06406410      13.20671198       3.97825814
Cu      15.58485500       6.69001347      10.69079579
Cu      11.03351268       8.87507170      12.29491212
Cu      11.94547373       4.66089549      13.97130197
Cu       8.49405902       8.28899506       8.03480701
Cu      17.80569370       5.91858326      11.07221988
Cu      13.23732325      16.96338341      12.71806054
Cu      16.29048708      13.70679200       6.71799888
Cu       6.96545903       7.79942163      17.42299819
Cu      10.52480004       6.92057396       4.44716852
Cu      18.42272721      11.72160068       9.79756825
Cu      12.35337167       7.39002921       7.30755202
Cu      13.91884495       5.38006979       9.37147601
Cu       6.09924600       7.99682707       3.87414366
Cu      11.17897459       6.59722095      13.30046371
Cu      14.23447470      12.25807887      14.55501854
Cu      14.09235110      18.37159730       7.88107249
Cu      14.08230716      10.51752011       5.17798776
Cu       7.61989906       7.28869567       8.02270821
Cu       7.13902382       6.67339632       4.09084246
Cu      12.06454965      11.64916052       8.08858569
Cu      11.33831433       9.42701219       4.62440747
Cu       6.85765887      10.35611317      16.30844779
Cu       8.91782378      13.64505394      12.36883058
Cu      12.18649285      15.24591111      11.85022037
Cu       4.22196251       8.39568168       4.43791271
Cu       6.82207834      11.84869925       4.13702653
Cu      12.94925966      17.29621825      11.77418350
Cu       8.58882110      12.63188216      16.24275154
Cu      14.75790907      13.46020341      13.92301062
Cu       6.20989324       8.50427145      15.10359085
Cu       6.04967078      14.69869426       9.79710958
Cu       8.47696649       8.77897846       4.49198587
Cu       9.13356528      11.43857465       6.48917376
Cu      12.82749402       4.01914888      10.51841305
Cu      11.98004663      16.63373108      16.88191828
Cu      17.42288452       4.81925953       9.21748345
Cu      11.73710711       3.66832818      11.16699046
Cu      15.15513037      10.03425306      12.25704947
Cu      17.66637251      13.55541529      11.34587438
Cu       9.14621675       4.87465524       5.37404339
Cu      12.69873855      16.84036316      18.32737050
Cu      14.49250410      11.18947959       8.62986310
Cu      12.55154098      17.74837905       8.77290124
Cu      11.57064063       9.73867927      15.32973658
Cu      16.89235285       7.03084256       3.91171324
Cu      14.82024335      10.08166055      12.55560661
Cu       9.54630187      18.38026761      11.90278071
Cu      18.10521973      12.10458803      11.30594950
Cu       8.21366665       8.52551700      12.71664868
Cu      11.92642713      17.73616602       8.91436162
Cu       5.86558472      10.94355369      17.37610518
Cu       9.26050670       5.46068579      17.46456625
Cu      10.21691483       6.04879978       5.90903727
Cu      14.30588827       4.24578207      13.71118166
Cu       8.75330909      13.89125746       5.59592882
Cu      17.34266613       7.13371990       4.03254719
Cu      11.37468065      10.27009540       8.33174013
Cu      18.45070555       4.84007017      11.06221745
Cu      13.70393364       9.98916214       4.74309317
Cu      10.55122337       8.02333442       6.18071581
Cu      11.31106025      11.71747083      10.66460937
Cu      15.47651195      16.34467943       9.33377784
Cu      11.40364490      16.96729214      16.92450496
Cu       8.72521835       4.34360586       5.81890995
Cu      10.26295043      12.58372910       7.64202309
Cu      16.82451568      18.00386713       4.97196501
Cu      14.62408380      10.37472436      12.38644708
