147
Lattice="1000.0 0.0 0.0 0.0 1000.0 0.0 0.0 0.0 1000.0" Properties=species:S:1:pos:R:3:tags:I:1 pbc="F F F"
Au      22.63152006      22.63152006      22.63152006        1
Au      26.84202674      22.63152006      20.02928381        2
Au      26.84202674      22.63152006      25.23375630        2
Au      18.42101337      22.63152006      20.02928381        2
Au      18.42101337      22.63152006      25.23375630        2
Au      20.02928381      26.84202674      22.63152006        2
Au      25.23375630      26.84202674      22.63152006        2
Au      20.02928381      18.42101337      22.63152006        2
Au      25.23375630      18.42101337      22.63152006        2
Au      22.63152006      20.02928381      26.84202674        2
Au      22.63152006      25.23375630      26.84202674        2
Au      22.63152006      20.02928381      18.42101337        2
Au      22.63152006      25.23375630      18.42101337        2
Au      31.05253343      22.63152006      17.42704757        3
Au      31.05253343      22.63152006      22.63152006        3
Au      31.05253343      22.63152006      27.83599254        3
Au      14.21050669      22.63152006      17.42704757        3
Au      14.21050669      22.63152006      22.63152006        3
Au      14.21050669      22.63152006      27.83599254        3
Au      17.42704757      31.05253343      22.63152006        3
Au      22.63152006      31.05253343      22.63152006        3
Au      27.83599254      31.05253343      22.63152006        3
Au      17.42704757      14.21050669      22.63152006        3
Au      22.63152006      14.21050669      22.63152006        3
Au      27.83599254      14.21050669      22.63152006        3
Au      22.63152006      17.42704757      31.05253343        3
Au      22.63152006      22.63152006      31.05253343        3
Au      22.63152006      27.83599254      31.05253343        3
Au      22.63152006      17.42704757      14.21050669        3
Au      22.63152006      22.63152006      14.21050669        3
Au      22.63152006      27.83599254      14.21050669        3
Au      26.84202674      20.02928381      29.44426298        3
Au      26.84202674      25.23375630      29.44426298        3
Au      26.84202674      20.02928381      15.81877713        3
Au      26.84202674      25.23375630      15.81877713        3
Au      18.42101337      20.02928381      29.44426298        3
Au      18.42101337      25.23375630      29.44426298        3
Au      18.42101337      20.02928381      15.81877713        3
Au      18.42101337      25.23375630      15.81877713        3
Au      29.44426298      26.84202674      20.02928381        3
Au      29.44426298      26.84202674      25.23375630        3
Au      15.81877713      26.84202674      20.02928381        3
Au      15.81877713      26.84202674      25.23375630        3
Au      29.44426298      18.42101337      20.02928381        3
Au      29.44426298      18.42101337      25.23375630        3
Au      15.81877713      18.42101337      20.02928381        3
Au      15.81877713      18.42101337      25.23375630        3
Au      20.02928381      29.44426298      26.84202674        3
Au      25.23375630      29.44426298      26.84202674        3
Au      20.02928381      15.81877713      26.84202674        3
Au      25.23375630      15.81877713      26.84202674        3
Au      20.02928381      29.44426298      18.42101337        3
Au      25.23375630      29.44426298      18.42101337        3
Au      20.02928381      15.81877713      18.42101337        3
Au      25.23375630      15.81877713      18.42101337        3
Au      35.26304011      22.63152006      14.82481133        4
Au      35.26304011      22.63152006      20.02928381        4
Au      35.26304011      22.63152006      25.23375630        4
Au      35.26304011      22.63152006      30.43822878        4
Au      10.00000000      22.63152006      14.82481133        4
Au      10.00000000      22.63152006      20.02928381        4
Au      10.00000000      22.63152006      25.23375630        4
Au      10.00000000      22.63152006      30.43822878        4
Au      14.82481133      35.26304011      22.63152006        4
Au      20.02928381      35.26304011      22.63152006        4
Au      25.23375630      35.26304011      22.63152006        4
Au      30.43822878      35.26304011      22.63152006        4
Au      14.82481133      10.00000000      22.63152006        4
Au      20.02928381      10.00000000      22.63152006        4
Au      25.23375630      10.00000000      22.63152006        4
Au      30.43822878      10.00000000      22.63152006        4
Au      22.63152006      14.82481133      35.26304011        4
Au      22.63152006      20.02928381      35.26304011        4
Au      22.63152006      25.23375630      35.26304011        4
Au      22.63152006      30.43822878      35.26304011        4
Au      22.63152006      14.82481133      10.00000000        4
Au      22.63152006      20.02928381      10.00000000        4
Au      22.63152006      25.23375630      10.00000000        4
Au      22.63152006      30.43822878      10.00000000        4
Au      31.05253343      20.02928381      32.04649922        4
Au      26.84202674      17.42704757      33.65476967        4
Au      31.05253343      25.23375630      32.04649922        4
Au      26.84202674      22.63152006      33.65476967        4
Au      26.84202674      27.83599254      33.65476967        4
Au      31.05253343      20.02928381      13.21654089        4
Au      26.84202674      17.42704757      11.60827044        4
Au      31.05253343      25.23375630      13.21654089        4
Au      26.84202674      22.63152006      11.60827044        4
Au      26.84202674      27.83599254      11.60827044        4
Au      14.21050669      20.02928381      32.04649922        4
Au      18.42101337      17.42704757      33.65476967        4
Au      14.21050669      25.23375630      32.04649922        4
Au      18.42101337      22.63152006      33.65476967        4
Au      18.42101337      27.83599254      33.65476967        4
Au      14.21050669      20.02928381      13.21654089        4
Au      18.42101337      17.42704757      11.60827044        4
Au      14.21050669      25.23375630      13.21654089        4
Au      18.42101337      22.63152006      11.60827044        4
Au      18.42101337      27.83599254      11.60827044        4
Au      32.04649922      31.05253343      20.02928381        4
Au      33.65476967      26.84202674      17.42704757        4
Au      32.04649922      31.05253343      25.23375630        4
Au      33.65476967      26.84202674      22.63152006        4
Au      33.65476967      26.84202674      27.83599254        4
Au      13.21654089      31.05253343      20.02928381        4
Au      11.60827044      26.84202674      17.42704757        4
Au      13.21654089      31.05253343      25.23375630        4
Au      11.60827044      26.84202674      22.63152006        4
Au      11.60827044      26.84202674      27.83599254        4
Au      32.04649922      14.21050669      20.02928381        4
Au      33.65476967      18.42101337      17.42704757        4
Au      32.04649922      14.21050669      25.23375630        4
Au      33.65476967      18.42101337      22.63152006        4
Au      33.65476967      18.42101337      27.83599254        4
Au      13.21654089      14.21050669      20.02928381        4
Au      11.60827044      18.42101337      17.42704757        4
Au      13.21654089      14.21050669      25.23375630        4
Au      11.60827044      18.42101337      22.63152006        4
Au      11.60827044      18.42101337      27.83599254        4
Au      20.02928381      32.04649922      31.05253343        4
Au      17.42704757      33.65476967      26.84202674        4
Au      25.23375630      32.04649922      31.05253343        4
Au      22.63152006      33.65476967      26.84202674        4
Au      27.83599254      33.65476967      26.84202674        4
Au      20.02928381      13.21654089      31.05253343        4
Au      17.42704757      11.60827044      26.84202674        4
Au      25.23375630      13.21654089      31.05253343        4
Au      22.63152006      11.60827044      26.84202674        4
Au      27.83599254      11.60827044      26.84202674        4
Au      20.02928381      32.04649922      14.21050669        4
Au      17.42704757      33.65476967      18.42101337        4
Au      25.23375630      32.04649922      14.21050669        4
Au      22.63152006      33.65476967      18.42101337        4
Au      27.83599254      33.65476967      18.42101337        4
Au      20.02928381      13.21654089      14.21050669        4
Au      17.42704757      11.60827044      18.42101337        4
Au      25.23375630      13.21654089      14.21050669        4
Au      22.63152006      11.60827044      18.42101337        4
Au      27.83599254      11.60827044      18.42101337        4
Au      29.44426298      15.81877713      29.44426298        4
Au      29.44426298      29.44426298      29.44426298        4
Au      29.44426298      15.81877713      15.81877713        4
Au      29.44426298      29.44426298      15.81877713        4
Au      15.81877713      15.81877713      29.44426298        4
Au      15.81877713      29.44426298      29.44426298        4
Au      15.81877713      15.81877713      15.81877713        4
Au      15.81877713      29.44426298      15.81877713        4
