147
Lattice="23.699370824999953 0.0 0.0 0.0 23.967007460000023 0.0 0.0 0.0 22.91779368250002" Properties=species:S:1:pos:R:3:tags:I:1 pbc="F F F"
Ne      11.22845451      10.59593827      12.91779368        0
Ne      11.82754085      10.81577706      12.91336775        0
Ne      12.42662720      11.03561584      12.90894182        0
Ne      11.00857118      11.19490324      12.90573495        0
Ne      13.02571354      11.25545463      12.90451590        0
Ne      11.60765752      11.41474202      12.90130902        0
Ne      12.20674386      11.63458081      12.89688310        0
Ne      10.78868784      11.79386821      12.89367622        0
Ne      12.80583020      11.85441960      12.89245717        0
Ne      11.38777419      12.01370699      12.88925029        0
Ne      11.98686053      12.23354578      12.88482437        0
Ne      10.56880451      12.39283317      12.88161749        0
Ne      12.58594687      12.45338456      12.88039844        0
Ne      11.16789085      12.61267196      12.87719157        0
Ne      11.76697719      12.83251074      12.87276564        0
Ne      12.36606353      13.05234953      12.86833971        0
Ne      11.63793935      10.39729218      12.47045151        0
Ne      12.23702569      10.61713097      12.46602558        0
Ne      10.81896967      10.77641836      12.46281871        0
Ne      12.83611203      10.83696975      12.46159965        0
Ne      11.41805602      10.99625715      12.45839278        0
Ne      12.01714236      11.21609593      12.45396685        0
Ne      10.59908634      11.37538333      12.45075998        0
Ne      12.61622870      11.43593472      12.44954092        0
Ne      11.19817268      11.59522211      12.44633405        0
Ne      13.21531504      11.65577351      12.44511499        0
Ne      11.79725902      11.81506090      12.44190812        0
Ne      10.37920301      11.97434830      12.43870125        0
Ne      12.39634537      12.03489969      12.43748219        0
Ne      10.97828935      12.19418708      12.43427532        0
Ne      12.99543171      12.25473847      12.43305626        0
Ne      11.57737569      12.41402587      12.42984939        0
Ne      12.17646203      12.63386465      12.42542346        0
Ne      10.75840601      12.79315205      12.42221659        0
Ne      12.77554837      12.85370344      12.42099753        0
Ne      11.35749236      13.01299083      12.41779066        0
Ne      11.95657870      13.23282962      12.41336473        0
Ne      12.04742419      10.19864609      12.02310933        0
Ne      12.64651053      10.41848488      12.01868340        0
Ne      11.22845451      10.57777227      12.01547653        0
Ne      11.82754085      10.79761106      12.01105060        0
Ne      10.40948484      10.95689845      12.00784373        0
Ne      12.42662720      11.01744984      12.00662467        0
Ne      11.00857118      11.17673724      12.00341780        0
Ne      13.02571354      11.23728863      12.00219874        0
Ne      11.60765752      11.39657602      11.99899187        0
Ne      10.18960150      11.55586342      11.99578500        0
Ne      12.20674386      11.61641481      11.99456594        0
Ne      10.78868784      11.77570220      11.99135907        0
Ne      12.80583020      11.83625359      11.99014001        0
Ne      11.38777419      11.99554099      11.98693314        0
Ne      13.40491654      12.05609238      11.98571408        0
Ne      11.98686053      12.21537978      11.98250721        0
Ne      10.56880451      12.37466717      11.97930034        0
Ne      12.58594687      12.43521856      11.97808128        0
Ne      11.16789085      12.59450596      11.97487441        0
Ne      13.18503321      12.65505735      11.97365535        0
Ne      11.76697719      12.81434474      11.97044848        0
Ne      12.36606353      13.03418353      11.96602255        0
Ne      10.94800752      13.19347092      11.96281568        0
Ne      11.54709386      13.41330971      11.95838975        0
Ne      12.45690903      10.00000000      11.57576715        0
Ne      11.63793935      10.37912618      11.56813435        0
Ne      12.23702569      10.59896497      11.56370842        0
Ne      10.81896967      10.75825236      11.56050155        0
Ne      12.83611203      10.81880375      11.55928249        0
Ne      11.41805602      10.97809115      11.55607562        0
Ne      10.00000000      11.13737854      11.55286875        0
Ne      12.01714236      11.19792993      11.55164969        0
Ne      10.59908634      11.35721733      11.54844282        0
Ne      12.61622870      11.41776872      11.54722376        0
Ne      11.19817268      11.57705611      11.54401689        0
Ne      13.21531504      11.63760750      11.54279784        0
Ne      12.11174997      12.68133081      10.00000000        4
Ne      11.78468209      12.12295845      10.17746797        4
Ne      12.45516572      12.13986562      10.19781065        4
Ne      11.45761421      11.56458608      10.35493595        4
Ne      11.55609161      12.72246629      10.37389790        4
Ne      12.12809784      11.58149326      10.37527862        4
Ne      12.79858148      11.59840043      10.39562129        4
Ne      12.64095692      12.74982268      10.40681304        4
Ne      12.08529856      13.10988969      10.51564095        4
Ne      11.13054632      11.00621371      10.53240392        4
Ne      11.22902373      12.16409392      10.55136588        4
Ne      11.80102996      11.02312089      10.55274659        4
Ne      12.47151359      11.04002807      10.57308926        4
Ne      13.14199723      11.05693524      10.59343194        4
Ne      12.98437268      12.20835749      10.60462369        4
Ne      12.09852427      12.47812345      10.60480160        3
Ne      10.90195585      11.60572156      10.72883385        4
Ne      11.00043325      12.76360177      10.74779581        4
Ne      11.77145639      11.91975109      10.78226957        3
Ne      13.32778843      11.66689230      10.80243433        4
Ne      12.44194002      11.93665826      10.80261225        3
Ne      13.17016387      12.81831455      10.81362608        4
Ne      11.52964020      13.15102517      10.88953885        4
Ne      12.61450551      13.17838156      10.92245399        4
Ne      10.67336537      12.20522940      10.92526378        4
Ne      11.44438850      11.36137872      10.95973754        3
Ne      11.54286591      12.51925893      10.97869950        3
Ne      12.11487214      11.37828590      10.98008022        3
Ne      12.78535577      11.39519307      11.00042289        3
Ne      13.51357963      12.27684936      11.01143672        4
Ne      12.62773122      12.54661532      11.01161464        3
Ne      12.05884715      13.53844858      11.03128190        4
Ne      11.45761421      10.72961248      11.04889819        4
Ne      12.12809784      10.74651966      11.06924087        4
Ne      12.79858148      10.76342683      11.08958354        4
Ne      12.07207286      12.90668234      11.12044255        3
Ne      10.44477489      12.80473725      11.12169371        4
Ne      11.21579803      11.96088656      11.15616748        3
Ne      10.90195585      11.08967949      11.15772610        4
Ne      12.97114697      12.00515013      11.20942529        3
Ne      12.08529856      12.27491609      11.20960320        2
Ne      13.69937082      12.88680642      11.22043912        4
Ne      13.32778843      11.15085024      11.23132659        4
Ne      10.97398185      13.19216065      11.26343676        4
Ne      13.14371246      13.24687343      11.32926703        4
Ne      10.98720755      12.56039441      11.35259741        3
Ne      10.67336537      11.68918734      11.35415604        4
Ne      11.75823068      11.71654373      11.38707117        2
Ne      11.50318880      13.57958406      11.40517980        4
Ne      12.42871432      11.73345090      11.40741385        2
Ne      13.15693817      12.61510719      11.41842768        3
Ne      12.58805411      13.60694045      11.43809494        4
Ne      13.51357963      11.76080729      11.44032898        4
Ne      11.77145639      11.08477749      11.47623182        3
Ne      11.51641450      12.94781781      11.49434045        3
Ne      12.44194002      11.10168466      11.49657450        3
Ne      12.60127981      12.97517420      11.52725559        3
Ne      12.03239575      13.96700746      11.54692285        4
Ne      10.44477489      12.28869518      11.55058597        4
Ne      11.78468209      10.45301124      11.56539247        4
Ne      11.52964020      12.31605157      11.58350110        2
Ne      11.21579803      11.44484450      11.58505973        3
Ne      12.45516572      10.46991842      11.58573515        4
Ne      12.61450551      12.34340796      11.61641624        2
Ne      12.04562145      13.33524122      11.63608350        3
Ne      12.97114697      11.48910807      11.63831754        3
Ne      13.69937082      12.37076435      11.64933138        4
Ne      11.22902373      10.81307826      11.67422038        4
Ne      12.05884715      12.70347498      11.72524415        2
Ne      12.98437268      10.85734182      11.72747819        4
Ne      10.63056609      12.89865224      11.75958836        4
Ne      10.98720755      12.04435235      11.78148966        3
Ne      10.67336537      11.17314527      11.78304829        4
Ne      12.07207286      12.07170873      11.81440480        1
