147
Lattice="23.707556505000007 0.0 0.0 0.0 23.383252520000063 0.0 0.0 0.0 23.438449964999997" Properties=species:S:1:pos:R:3 pbc="F F F"
Ne      12.33209229      10.99825820      13.43844997
Ne      11.94341024      11.50249908      13.39462610
Ne      11.55472819      12.00673995      13.35080223
Ne      11.16604614      12.51098082      13.30697836
Ne      12.56133633      11.56213362      13.24676061
Ne      12.17265428      12.06637450      13.20293674
Ne      11.78397223      12.57061537      13.15911288
Ne      11.94341024      10.66550547      13.05706432
Ne      12.79058036      12.12600904      13.05507126
Ne      11.55472819      11.16974634      13.01324045
Ne      12.40189831      12.63024992      13.01124739
Ne      11.16604614      11.67398722      12.96941658
Ne      10.77736410      12.17822809      12.92559271
Ne      12.56133633      10.72514002      12.90919884
Ne      12.17265428      11.22938089      12.86537497
Ne      13.01982440      12.68988446      12.86338191
Ne      11.78397223      11.73362176      12.82155110
Ne      11.39529018      12.23786264      12.77772723
Ne      11.00660813      12.74210351      12.73390336
Ne      12.79058036      11.28901544      12.71750949
Ne      11.55472819      10.33275273      12.67567868
Ne      12.40189831      11.79325631      12.67368562
Ne      11.16604614      10.83699361      12.63185481
Ne      12.01321626      12.29749718      12.62986175
Ne      10.77736410      11.34123448      12.58803094
Ne      11.62453422      12.80173806      12.58603788
Ne      10.38868205      11.84547536      12.54420707
Ne      12.17265428      10.39238728      12.52781320
Ne      13.01982440      11.85289086      12.52582014
Ne      11.78397223      10.89662815      12.48398933
Ne      12.63114235      12.35713173      12.48199627
Ne      11.39529018      11.40086903      12.44016546
Ne      12.24246030      12.86137260      12.43817240
Ne      11.00660813      11.90510990      12.39634159
Ne      12.79058036      10.45202183      12.37994772
Ne      10.61792608      12.40935078      12.35251772
Ne      12.40189831      10.95626270      12.33612385
Ne      13.24906843      12.41676628      12.33413079
Ne      11.16604614      10.00000000      12.29429304
Ne      12.01321626      11.46050358      12.29229998
Ne      12.86038638      12.92100715      12.29030692
Ne      10.77736410      10.50424087      12.25046917
Ne      11.62453422      11.96474445      12.24847611
Ne      10.38868205      11.00848175      12.20664530
Ne      11.23585217      12.46898532      12.20465224
Ne      13.01982440      11.01589725      12.18825837
Ne      10.00000000      11.51272262      12.16282143
Ne      10.84717012      12.97322620      12.16082837
Ne      11.78397223      10.05963455      12.14642756
Ne      12.63114235      11.52013812      12.14443450
Ne      11.39529018      10.56387542      12.10260369
Ne      12.24246030      12.02437900      12.10061063
Ne      11.00660813      11.06811629      12.05877982
Ne      11.85377825      12.52861987      12.05678676
Ne      10.61792608      11.57235717      12.01495595
Ne      11.46509620      13.03286074      12.01296289
Ne      12.40189831      10.11926909      11.99856208
Ne      13.24906843      11.57977267      11.99656901
Ne      10.22924404      12.07659804      11.97113208
Ne      12.01321626      10.62350997      11.95473821
Ne      12.86038638      12.08401354      11.95274514
Ne      11.62453422      11.12775084      11.91091434
Ne      12.47170434      12.58825442      11.90892127
Ne      11.23585217      11.63199171      11.86709047
Ne      12.08302229      13.09249529      11.86509740
Ne      13.01982440      10.17890364      11.85069659
Ne      10.84717012      12.13623259      11.82326660
Ne      12.63114235      10.68314451      11.80687272
Ne      13.47831247      12.14364809      11.80487966
Ne      10.45848807      12.64047346      11.77944273
Ne      12.24246030      11.18738539      11.76304885
Ne      13.08963042      12.64788896      11.76105579
Ne      11.00660813      10.23112269      11.72121805
Ne      11.85377825      11.69162626      11.71922498
Ne      12.70094837      13.15212984      11.71723192
Ne      10.61792608      10.73536356      11.67739418
Ne      11.46509620      12.19586714      11.67540111
Ne      13.24906843      10.74277906      11.65900724
Ne      10.22924404      11.23960443      11.63357031
Ne      11.07641415      12.70010801      11.63157724
Ne      12.86038638      11.24701993      11.61518337
Ne      10.68773211      13.20434888      11.58775337
Ne      11.62453422      10.29075723      11.57335256
Ne      12.47170434      11.75126081      11.57135950
Ne      11.23585217      10.79499811      11.52952869
Ne      12.08302229      12.25550168      11.52753563
Ne      10.84717012      11.29923898      11.48570482
Ne      11.69434024      12.75974256      11.48371176
Ne      13.47831247      11.30665448      11.46731789
Ne      10.45848807      11.80347985      11.44188095
Ne      11.30565819      13.26398343      11.43988789
Ne      12.24246030      10.35039178      11.42548708
Ne      13.08963042      11.81089535      11.42349402
Ne      11.85377825      10.85463265      11.38166321
Ne      12.70094837      12.31513623      11.37967015
Ne      11.46509620      11.35887353      11.33783934
Ne      12.31226632      12.81937710      11.33584628
Ne      11.07641415      11.86311440      11.29401547
Ne      11.92358427      13.32361798      11.29202241
Ne      12.86038638      10.41002633      11.27762160
Ne      13.70755650      11.87052990      11.27562854
Ne      10.68773211      12.36735527      11.25019160
Ne      12.47170434      10.91426720      11.23379773
Ne      13.31887445      12.37477077      11.23180467
Ne      12.08302229      11.41850807      11.18997386
Ne      12.93019241      12.87901165      11.18798080
Ne      10.84717012      10.46224537      11.14814305
Ne      11.69434024      11.92274895      11.14614999
Ne      12.54151036      13.38325252      11.14415693
Ne      10.45848807      10.96648625      11.10431918
Ne      11.30565819      12.42698982      11.10232612
Ne      13.08963042      10.97390175      11.08593225
Ne      10.91697614      12.93123069      11.05850225
Ne      12.70094837      11.47814262      11.04210838
Ne      11.46509620      10.52187992      11.00027757
Ne      12.31226632      11.98238349      10.99828451
Ne      11.07641415      11.02612079      10.95645370
Ne      11.92358427      12.48662437      10.95446064
Ne      10.68773211      11.53036167      10.91262983
Ne      11.53490223      12.99086524      10.91063677
Ne      13.31887445      11.53777717      10.89424290
Ne      12.08302229      10.58151447      10.85241209
Ne      12.93019241      12.04201804      10.85041903
Ne      11.69434024      11.08575534      10.80858822
Ne      12.54151036      12.54625891      10.80659516
Ne      11.30565819      11.58999621      10.76476435
Ne      12.15282831      13.05049979      10.76277129
Ne      10.91697614      12.09423709      10.72094048
Ne      12.70094837      10.64114901      10.70454660
Ne      12.31226632      11.14538989      10.66072273
Ne      11.92358427      11.64963076      10.61689887
Ne      10.68773211      10.69336806      10.57506806
Ne      11.53490223      12.15387163      10.57307500
Ne      11.14622018      12.65811251      10.52925113
Ne      12.93019241      11.20502443      10.51285725
Ne      12.54151036      11.70926531      10.46903338
Ne      11.30565819      10.75300261      10.42720257
Ne      12.15282831      12.21350618      10.42520951
Ne      10.91697614      11.25724348      10.38337870
Ne      11.76414626      12.71774705      10.38138564
Ne      11.92358427      10.81263715      10.27933709
Ne      11.53490223      11.31687803      10.23551322
Ne      11.14622018      11.82111890      10.19168935
Ne      12.54151036      10.87227170      10.13147161
Ne      12.15282831      11.37651257      10.08764774
Ne      11.76414626      11.88075345      10.04382387
Ne      11.37546421      12.38499432      10.00000000
