55
Lattice="15.9925807896 0.0 0.0 0.0 15.9925807896 0.0 0.0 0.0 15.9925807896" Properties=species:S:1:pos:R:3:Z:I:1:forces:R:3 energy=-161.997830211 pbc="F F F"
Cu      7.29513760       9.59387976      11.88033694       29      -0.00020290      -0.00118378      -0.00098003 
Cu      7.60921701       7.01490831      11.97538374       29       0.00053948       0.00115454      -0.00030568 
Cu      5.18686680      10.09351582      10.45326881       29      -0.00033477       0.00031830       0.00096021 
Cu      9.32814519      11.09745092      11.67082983       29      -0.00000631      -0.00052165       0.00246228 
Cu      9.66378196       8.57373056      11.82693158       29       0.00209652       0.00169650       0.00079021 
Cu      5.68782339       5.91497176      10.60346642       29       0.00138318       0.00225930      -0.00075376 
Cu      7.24548550      11.64289050      10.30764057       29      -0.00023106      -0.00133311      -0.00142755 
Cu      4.19048333       7.83027166       9.67121545       29       0.00017954      -0.00162696      -0.00044752 
Cu      9.95018611       6.04143982      11.86295366       29       0.00219792      -0.00070996       0.00196310 
Cu      6.61295089       8.12855149      10.01838065       29       0.00195499      -0.00164308       0.00010361 
Cu      5.18477096      12.07690466       8.87076276       29       0.00064382       0.00068938      -0.00114073 
Cu      8.07227580       4.90825271      10.56293488       29       0.00058004       0.00115505      -0.00091407 
Cu      8.65695348       9.65049494       9.82373482       29      -0.00150227      -0.00146664       0.00024256 
Cu      4.14644294       9.88072111       8.10094456       29       0.00113617       0.00043105       0.00073350 
Cu      4.65671118       5.72840703       8.24212869       29       0.00126150       0.00056730      -0.00017459 
Cu      8.96798220       7.13791146       9.91781020       29      -0.00265491       0.00044492      -0.00020652 
Cu     11.09015054       9.99472987      10.20349455       29       0.00339179       0.00054587       0.00072979 
Cu      9.59550208      11.88552061       9.26397722       29       0.00137016       0.00155027      -0.00045296 
Cu      6.18409024       3.86205984       9.18160711       29      -0.00014648       0.00174669      -0.00260583 
Cu      6.60190914      10.13860959       8.43335208       29      -0.00186614       0.00222278       0.00239244 
Cu     11.40874140       7.43085435      10.30268423       29       0.00087487      -0.00082737      -0.00007894 
Cu      3.22981325       7.62679326       7.32927751       29      -0.00350178      -0.00125214       0.00072937 
Cu      7.09788868       6.06395258       8.58796759       29      -0.00221664      -0.00190850       0.00371582 
Cu      7.49340481      12.38353951       7.84230809       29      -0.00175120       0.00063235       0.00025619 
Cu      5.63478384       7.93618328       7.67153951       29      -0.00993788      -0.00028516       0.00021728 
Cu     10.43305229       5.16872294       9.52103498       29      -0.00135008       0.00284909      -0.00238483 
Cu      8.00051610       8.22156996       7.99631349       29      -0.00171226      -0.00128367      -0.00209602 
Cu      4.42742853       3.42828081       7.47679471       29      -0.00036026      -0.00035809      -0.00097575 
Cu      8.70404778       6.86099172       4.11049955       29       0.00093957      -0.00140605      -0.00102365 
Cu      6.32698184       7.87609104       4.16744653       29      -0.00066507      -0.00019203      -0.00255184 
Cu      8.38728403       9.43397380       4.01719705       29      -0.00009123      -0.00112254      -0.00022495 
Cu      6.05162890      10.41463771       4.13470947       29      -0.00165740      -0.00099223      -0.00132484 
Cu     11.80844070       8.63624058       6.32880976       29      -0.00026032       0.00282126      -0.00040959 
Cu     10.82867982       6.37050779       5.54205184       29       0.00066408      -0.00231296      -0.00011163 
Cu     10.83651865       4.38565527       7.12781465       29      -0.00075057      -0.00023930      -0.00113236 
Cu      6.66424647       5.33815991       4.30918658       29      -0.00047976      -0.00075133      -0.00138767 
Cu      7.34162435       6.79648353       6.16432428       29      -0.00282455       0.00024679       0.00088032 
Cu      8.78712734       4.81510162       5.67168050       29       0.00142476      -0.00277161       0.00075724 
Cu     10.30505379      10.53029670       5.38436336       29       0.00026542      -0.00282956       0.00152868 
Cu      9.38756987       8.31961710       5.97638326       29       0.00046130       0.00254091       0.00173558 
Cu     11.85652048       6.58696430       7.89934686       29      -0.00038306      -0.00033353       0.00070004 
Cu      4.58942467       9.04005336       5.69892852       29      -0.00028212       0.00257200      -0.00095213 
Cu     11.34165037      10.74222183       7.74187962       29      -0.00195864       0.00220690      -0.00051556 
Cu      7.93163064      11.54246260       5.43675008       29       0.00073069       0.00136623      -0.00022493 
Cu      7.03458536       9.31094685       6.07526227       29      -0.00166012       0.00144088       0.00019717 
Cu     10.36642534       8.52860200       8.32832640       29       0.00289058       0.00070480      -0.00193256 
Cu      9.40338908       6.31206999       7.56000458       29       0.00170408      -0.00086601       0.00249473 
Cu     12.76276754       8.84104917       8.67050381       29       0.00125953      -0.00103302       0.00142315 
Cu      5.58325046      11.29273339       6.48038421       29       0.00029833       0.00065240       0.00028881 
Cu      4.64680223       4.14745879       5.15979403       29      -0.00193763      -0.00196658      -0.00084340 
Cu      4.90061795       6.47861885       5.80433868       29       0.00901578      -0.00056903       0.00086511 
Cu      6.49087884       4.54267734       6.73378019       29      -0.00166197      -0.00078919      -0.00044488 
Cu      9.81546949      12.56429998       6.81854129       29       0.00239063       0.00015876       0.00141659 
Cu      8.90324521      10.37911666       7.40917164       29       0.00197342      -0.00085474       0.00018433 
Cu      8.53846635       4.06162320       8.17190517       29       0.00075923       0.00045550       0.00025663 
