55
Lattice="15.7530028397 0.0 0.0 0.0 15.7530028397 0.0 0.0 0.0 15.7530028397" Properties=species:S:1:pos:R:3:Z:I:1:forces:R:3 energy=-161.950600599 pbc="F F F"
Cu      7.78451666       6.78162791      12.63743157       29       0.00246533      -0.00010435      -0.00260472 
Cu      7.11990507       9.28704453      12.46402664       29      -0.00358769      -0.00189394       0.00306109 
Cu      6.08034607       4.99339441      12.06546154       29       0.00012076       0.00032232      -0.00041417 
Cu      5.38684992       7.44652915      11.94707016       29      -0.00027184      -0.00186084       0.00098585 
Cu      9.15453232      10.59105115      11.51514226       29       0.00199977       0.00126363      -0.00121625 
Cu     10.22536674       6.53686889      11.78499093       29      -0.00224123      -0.00025011      -0.00093414 
Cu      4.77475619       9.91267605      11.72837838       29       0.00044335      -0.00056122       0.00281937 
Cu     11.07344722       8.89141738      11.09566101       29      -0.00156173       0.00005788      -0.00241600 
Cu      8.48518743       4.70395896      11.26837362       29       0.00857674       0.00005474      -0.00050905 
Cu      8.70275132       8.25330260      10.88558701       29       0.00655483      -0.00545139       0.00171751 
Cu      6.75504443      11.24955693      10.83176252       29      -0.00197205      -0.00024496       0.00162436 
Cu     10.69916463      10.85479930       9.46325263       29      -0.00047500       0.00352859       0.00292966 
Cu     10.87433566       4.51820024      10.39389258       29      -0.00246201       0.00124661      -0.00299367 
Cu      6.98554223       6.44769592      10.32699174       29      -0.00120916       0.00094816      -0.00327920 
Cu      6.33656125       8.89200800      10.15619856       29      -0.00320193      -0.00054652      -0.00217430 
Cu      4.59822840       5.76511847      10.14748625       29      -0.00286904       0.00110676      -0.00154851 
Cu      3.93146466       8.26395333       9.98025114       29      -0.00019749      -0.00080528      -0.00246962 
Cu      8.77247074      12.47673143       9.86614116       29       0.00059457       0.00205779      -0.00227172 
Cu      6.51096043       4.07615083       9.72870359       29       0.00068242      -0.00405586       0.00206707 
Cu     11.76767891       6.81068758       9.73461568       29       0.00085620      -0.00451134      -0.00157360 
Cu      9.36452834       6.21319302       9.49313061       29       0.00010365       0.00237137       0.00473120 
Cu      8.32033976      10.16433441       9.23036746       29      -0.00210228       0.00818072      -0.00175366 
Cu      4.79042925      10.60114316       9.28686562       29      -0.00148966       0.00253572      -0.00189811 
Cu     12.53891744       9.13767448       9.04160285       29       0.00439847      -0.00012554       0.00058205 
Cu     10.19166786       8.50591224       8.82114597       29      -0.00060267       0.00175826       0.00032205 
Cu      8.95001081       3.83384130       8.87917637       29       0.00055953       0.00091841      -0.00012141 
Cu      7.87203029       7.89385823       8.61030526       29      -0.00318383       0.00114769       0.00202390 
Cu      6.82343599      11.91292945       8.34159876       29      -0.00227103      -0.00200152      -0.00056266 
Cu      5.55614711       7.24839967       8.40074451       29      -0.00365579      -0.00365568      -0.00037247 
Cu     11.16700426       9.98537750       7.07694667       29       0.00151806      -0.00257402      -0.00231669 
Cu      3.21408540       6.60286288       8.18208620       29       0.00336088       0.00246891       0.00048361 
Cu      7.43531263       5.58833060       7.99087820       29       0.00076164      -0.00014526      -0.00380313 
Cu     10.96665382       5.14246255       7.92423173       29      -0.00070862       0.00277402      -0.00027554 
Cu      6.36183400       9.58160355       7.68121655       29      -0.00113806      -0.00433205       0.00168850 
Cu      5.06038292       4.89705080       7.75049686       29      -0.00135578       0.00799230       0.00229759 
Cu      3.99511703       8.91803304       7.48100345       29      -0.00267950      -0.00204789      -0.00395827 
Cu      9.24916911      11.68623710       7.49211131       29       0.00148042       0.00093776       0.00155110 
Cu      6.98970818       3.27627141       7.35586389       29      -0.00070280      -0.00111973      -0.00009545 
Cu     11.81713771       7.48309435       7.24204331       29       0.00087462      -0.00100889      -0.00058168 
Cu      9.40823517       6.87515991       7.04171832       29       0.00181610      -0.00059687       0.00217869 
Cu      8.77334384       9.32383386       6.88141536       29       0.00184758      -0.00099340      -0.00222539 
Cu      9.73236770       9.37505136       3.11557127       29      -0.00020861       0.00389572       0.00157915 
Cu      7.89164732      11.03720792       3.51016898       29      -0.00342697      -0.00143202       0.00149919 
Cu      6.21751951       7.10769613       4.10596262       29       0.00417931      -0.00315470       0.00153278 
Cu      9.71950288      10.79558939       5.14657082       29       0.00030009      -0.00060985       0.00228443 
Cu      8.62526159       6.47481286       4.71208319       29      -0.00184612      -0.00279535       0.00131684 
Cu      6.59576355       5.14994066       5.68185284       29      -0.00194450       0.00418450      -0.00153074 
Cu      5.52462585       9.19798653       5.39313990       29       0.00211747      -0.00200924      -0.00304772 
Cu      7.28337708      11.06248188       5.92393023       29       0.00450042      -0.00078978       0.00004175 
Cu      8.99612305       4.51525950       6.37723005       29      -0.00415031       0.00020295       0.00185429 
Cu     10.38490383       8.31583314       5.26041749       29       0.00099652       0.00028415      -0.00010896 
Cu     10.97298085       5.84901729       5.47344209       29      -0.00020755      -0.00014167       0.00073050 
Cu      7.91164200       8.89717750       4.62064975       29       0.00224802      -0.00071496       0.00040165 
Cu      7.03681681       7.48043365       6.39018082       29      -0.00039664      -0.00156940      -0.00153169 
Cu      4.66316986       6.84500855       6.10202718       29      -0.00123686       0.00186469       0.00628435 
