55
Lattice="15.8239710232 0.0 0.0 0.0 15.8239710232 0.0 0.0 0.0 15.8239710232" Properties=species:S:1:pos:R:3:Z:I:1:forces:R:3 energy=-161.86094401 pbc="F F F"
Cu      8.94973148       6.79695014      12.53403211       29      -0.00110224       0.00145953      -0.00035013 
Cu      7.93558427       9.06130952      11.94256214       29      -0.00268047       0.00108405      -0.00061217 
Cu      6.54093288       6.90725009      11.71481437       29      -0.00179499       0.00024082      -0.00098473 
Cu      5.50486777       9.16839445      11.03653761       29       0.00084173       0.00168000       0.00263518 
Cu      6.92019041      11.28167586      11.22189424       29       0.00135298       0.00047156      -0.00209724 
Cu      4.16064114       6.98730857      10.74189789       29       0.00189414      -0.00374207      -0.00187093 
Cu     10.37737108       8.50397031      11.29423139       29       0.00265653      -0.00016403       0.00257241 
Cu      8.13061977       4.99666021      10.92633321       29       0.00066722       0.00028219       0.00097120 
Cu      9.35222540      10.78041405      10.63150850       29      -0.00344279       0.00247256      -0.00139188 
Cu      5.72644237       5.13169304      10.06015729       29       0.00116576       0.00019560      -0.00074353 
Cu     10.49584211       5.98238995      10.68018585       29      -0.00160404       0.00102148       0.00229648 
Cu      8.47385615       7.35778619      10.20869441       29      -0.00100848       0.00236809      -0.00475497 
Cu      7.47018565       9.58841506       9.55665819       29      -0.00194089       0.00196269       0.00263680 
Cu      6.09608518       7.47337652       9.32925735       29       0.00071892       0.00041696      -0.00011903 
Cu      5.43283151      10.97032266       9.17620155       29       0.00005163      -0.00126307      -0.00135654 
Cu      4.02864416       8.82028940       8.94833807       29       0.00134630       0.00154112       0.00131839 
Cu     11.72180445      10.18806255       9.97024968       29       0.00139933       0.00040195      -0.00073939 
Cu      7.23391648       3.29309554       9.21861222       29       0.00082998      -0.00093476      -0.00175863 
Cu      7.79416955      11.97553177       8.93092833       29       0.00097449       0.00129811       0.00101557 
Cu      3.86679724       4.03151330       8.95500090       29       0.00367568      -0.00328770       0.00033308 
Cu     11.89722173       7.69867335       9.37805928       29      -0.00011293      -0.00151103       0.00108385 
Cu      9.63885046       4.19476819       8.99668961       29       0.00129070      -0.00138782      -0.00058508 
Cu      9.88955468       9.05161743       8.90231746       29       0.00301669      -0.00412271      -0.00227287 
Cu      7.64265658       5.61095875       8.56170142       29      -0.00299550       0.00195549       0.00089138 
Cu     11.95717378       5.23305370       8.73470539       29      -0.00053884      -0.00183671       0.00040279 
Cu      9.96054983       6.56523365       8.32375127       29      -0.00391903       0.00193798       0.00255041 
Cu     10.22205137      11.41931388       8.29462237       29      -0.00008825      -0.00036710       0.00156982 
Cu      7.04448051       9.01918169       3.28993891       29       0.00026095       0.00175669      -0.00135604 
Cu      8.06026005       6.76110109       3.87830083       29      -0.00338214      -0.00000540      -0.00073360 
Cu      5.60684531       7.30824321       4.52200958       29      -0.00091860      -0.00065697       0.00166558 
Cu      9.45382954       8.92630246       4.12677735       29      -0.00077022      -0.00043094      -0.00081248 
Cu      9.06893374       4.53334160       4.59988085       29       0.00273982       0.00126467      -0.00039376 
Cu      6.64035097       5.03874833       5.17068118       29      -0.00023114       0.00130210      -0.00219059 
Cu      5.49607893       9.82095717       5.14637824       29      -0.00113757      -0.00029032      -0.00020468 
Cu     10.47686351       6.64986514       4.79209190       29       0.00167200      -0.00086422      -0.00132967 
Cu      7.85823653      10.82528689       4.89434955       29      -0.00085927      -0.00114861      -0.00133836 
Cu      4.23443773       5.59884475       5.88957009       29       0.00267904       0.00194520      -0.00214407 
Cu     11.79901031       8.79066730       5.06873662       29      -0.00270501      -0.00227874      -0.00017750 
Cu      7.53181148       8.46401726       5.61215093       29      -0.00194547      -0.00379538       0.00350812 
Cu      4.06763914       8.10242087       6.43355322       29       0.00112926      -0.00213211       0.00266878 
Cu     10.26138113      10.70838048       5.79942374       29       0.00041322      -0.00461618      -0.00054456 
Cu      8.53366361       6.23333897       6.26434150       29       0.00075800      -0.00192460       0.00038091 
Cu      6.13304376       6.77430924       6.88424427       29       0.00178485       0.00505998      -0.00419208 
Cu      9.92787393       8.37233549       6.52212541       29       0.00163746       0.00113021       0.00061114 
Cu      8.19214730       3.84550177       6.89302239       29       0.00130098       0.00030754      -0.00193013 
Cu     10.55631186       4.83090353       6.64619495       29      -0.00076421      -0.00148537      -0.00073880 
Cu      6.31693527      11.60720182       6.82887175       29       0.00095993      -0.00097733       0.00220088 
Cu      4.01522463      10.56263370       7.08989885       29      -0.00142503      -0.00137124       0.00333966 
Cu      8.67839721      12.53087548       6.60442993       29      -0.00043246       0.00180067      -0.00151616 
Cu      5.76643301       4.39636046       7.48949233       29      -0.00047940       0.00051409       0.00259839 
Cu     11.93596977       6.98458602       6.88471896       29       0.00131256       0.00156646       0.00039728 
Cu      6.01133979       9.22509058       7.50349265       29      -0.00191119       0.00100926       0.00340658 
Cu      8.31942601      10.21105419       7.25954799       29       0.00281550       0.00247344      -0.00236715 
Cu      4.14081274       6.35037741       8.29830839       29      -0.00150844       0.00413973      -0.00485719 
Cu      8.00188415       7.91145887       7.90998294       29      -0.00164703      -0.00446582       0.00540927 
