55
Lattice="15.5834230361 0.0 0.0 0.0 15.5834230361 0.0 0.0 0.0 15.5834230361" Properties=species:S:1:pos:R:3:Z:I:1:forces:R:3 energy=-161.74618245 pbc="F F F"
Cu      6.10012689       6.54281321      12.07584863       29      -0.00016540      -0.00042662      -0.00139944 
Cu      7.13443726       8.97238320      11.76479865       29       0.00134719       0.00319581       0.00203981 
Cu      7.97228681       4.97939841      11.02596363       29       0.00261586      -0.00222459       0.00202195 
Cu      9.57575067       9.56120322      11.34732676       29       0.00027565       0.00322432       0.00081413 
Cu      7.13958196       7.15440431      10.05336997       29      -0.00047769       0.00330424       0.00109039 
Cu      4.85409727       8.60895576      10.93750618       29       0.00144144      -0.00106056       0.00120783 
Cu      9.62071747       7.72180650       9.68004331       29      -0.00082369      -0.00131740       0.00437066 
Cu      8.80752566       7.13848995      11.94707488       29       0.00233542      -0.00098268       0.00187745 
Cu      5.64809141       4.42205387      10.62720111       29      -0.00166255       0.00148611      -0.00218439 
Cu      5.96952507      10.72866467      10.20172123       29      -0.00113298       0.00152209      -0.00286845 
Cu      9.48124486       3.41416888       9.67619408       29       0.00106513      -0.00310500       0.00152335 
Cu      9.78872656      11.25166072       9.42858942       29       0.00141137       0.00433721       0.00393284 
Cu     10.41047991       5.55151376      10.62542460       29      -0.00098521      -0.00070068       0.00136527 
Cu     10.55324536       5.14454588       5.72276207       29       0.00391347      -0.00024061       0.00039863 
Cu      9.70132038       8.86816204       3.50757441       29      -0.00134922       0.00068752      -0.00047181 
Cu      7.22174312       8.35047043       3.95572445       29      -0.00327560      -0.00144505       0.00020135 
Cu      9.16594884       6.48009472       4.03858681       29       0.00102275       0.00126198      -0.00010445 
Cu      6.76986826       5.91461625       4.35473519       29       0.00382458       0.00027870      -0.00089034 
Cu      8.51289253       4.09774986       4.68451904       29      -0.00383143       0.00384674       0.00359644 
Cu      8.29573809      10.51721396       4.78595889       29       0.00169990       0.00034627       0.00152577 
Cu     11.19156291       7.55019896       5.12119617       29      -0.00305813       0.00046022       0.00058902 
Cu      5.79063106      10.03567068       5.29086438       29       0.00179348      -0.00248223       0.00098848 
Cu      9.08798480       3.68228788       7.16546527       29       0.00100734       0.00120286      -0.00073534 
Cu     10.69753234       9.98664353       5.55758212       29       0.00139698       0.00166338      -0.00403887 
Cu      8.85256181       8.27980166       5.73428082       29      -0.00025074      -0.00188274       0.00158701 
Cu      6.14028308       7.69418888       6.15396275       29      -0.00041368       0.00354801       0.00141398 
Cu      8.21292613       5.91071429       6.30625522       29      -0.00211813       0.00110349      -0.00032076 
Cu      4.94172048       5.37110453       5.83737345       29       0.00023413      -0.00425346      -0.00367913 
Cu      4.09525994       6.82454745       7.48647234       29       0.00253495      -0.00182035       0.00081850 
Cu     12.55004997       6.22414030       6.81643378       29       0.00152859      -0.00014596       0.00224376 
Cu      6.97191501      12.16925416       6.11020694       29      -0.00348881       0.00104893      -0.00078556 
Cu      4.00011985       9.20234275       6.91764454       29      -0.00094933      -0.00469098       0.00206155 
Cu      6.72195690       3.90158685       6.43505770       29      -0.00284768       0.00176080       0.00010903 
Cu      9.30424046      11.63574761       6.86884947       29      -0.00135731      -0.00464416       0.00371089 
Cu     12.11107803       8.65191318       7.24878864       29      -0.00367223       0.00054872       0.00092011 
Cu      7.43810530       9.91971921       7.05720909       29      -0.00016991       0.00037191       0.00078671 
Cu     10.25340152       6.97632795       7.36216707       29       0.00349074      -0.00073500      -0.00214961 
Cu     11.60573558      11.06078815       7.69558836       29       0.00213159      -0.00155147      -0.00003654 
Cu      9.78726175       9.38553903       7.79943197       29      -0.00134142      -0.00035251      -0.00116906 
Cu      7.92258688       7.74238299       7.87908113       29       0.00238479      -0.00030337      -0.00007482 
Cu      5.39197895      11.08422211       7.67526948       29       0.00053518       0.00043788       0.00016949 
Cu     11.06656426       4.78851827       8.25846356       29      -0.00000262      -0.00121413       0.00043836 
Cu      6.36487562       5.91909144       7.98265402       29      -0.00113374       0.00101727       0.00073369 
Cu      4.74844809       6.44956968       9.81673806       29       0.00075895       0.00148088      -0.00223094 
Cu      5.67238139       8.63417338       8.59565491       29      -0.00068286      -0.00191997      -0.00341790 
Cu      8.73195770       5.57853834       8.75782868       29      -0.00386323      -0.00142155      -0.00359461 
Cu      3.03337306       8.09040140       9.21702326       29      -0.00197190      -0.00000574       0.00174267 
Cu      4.66124464       4.31006501       8.22616277       29      -0.00242356      -0.00097807      -0.00309149 
Cu      7.53448755      11.90585327       8.60581658       29      -0.00190024      -0.00387113      -0.00043312 
Cu     11.97007180       6.96997921       9.18318601       29       0.00212680      -0.00113923       0.00080238 
Cu      3.76186284      10.32715998       9.28310870       29       0.00480672       0.00151966       0.00034676 
Cu      7.13489339       3.68166076       8.85721826       29       0.00176363       0.00598277      -0.00007370 
Cu     11.49080977       9.40573629       9.63116410       29      -0.00153016      -0.00186931      -0.00069428 
Cu     11.26779396       7.72637500      11.51732618       29       0.00028083      -0.00199710      -0.00340786 
Cu      7.93789172       9.57184485       9.49853329       29      -0.00084797       0.00314386      -0.00757576 
