55
Lattice="15.6649954147 0.0 0.0 0.0 15.6649954147 0.0 0.0 0.0 15.6649954147" Properties=species:S:1:pos:R:3:Z:I:1:forces:R:3 energy=-161.694424008 pbc="F F F"
Cu      8.33518090       7.92936537      12.64558373       29       0.00423598       0.00371061       0.00360719 
Cu      8.51713438       5.72350703      11.36602044       29       0.00243362       0.00189221       0.00169032 
Cu      9.17857091       9.89807867      11.22578608       29      -0.00188609      -0.00049205       0.00077526 
Cu      6.26213542       6.90999514      11.60023226       29      -0.00204929      -0.00338749      -0.00145367 
Cu      6.65882188       9.45609617      11.52053987       29      -0.00104438       0.00072113      -0.00200383 
Cu     10.27178440       4.09929430      11.78726286       29       0.00204856       0.00020629      -0.00013176 
Cu      7.31465282       7.78689177       3.01941168       29       0.00192370       0.00113873       0.00290391 
Cu      9.39244198       8.81862484       4.07159649       29       0.00076636       0.00003776       0.00382743 
Cu      9.01266212       6.25861745       4.15435836       29       0.00270477       0.00407053      -0.00065086 
Cu      7.08761782       9.97692830       4.29972356       29       0.00414236      -0.00028387       0.00307885 
Cu      6.47373275       5.83984692       4.42461274       29      -0.00309766       0.00198843      -0.00048182 
Cu      5.28750302       8.13857809       4.52567249       29       0.00388089      -0.00081401       0.00095424 
Cu     11.42316163       9.82079240       5.23584976       29       0.00236274      -0.00242169       0.00318037 
Cu     11.10051300       7.29310633       5.27136482       29       0.00012874       0.00008639      -0.00054555 
Cu      9.17638852      11.00754404       5.42659792       29      -0.00211839      -0.00060022       0.00307756 
Cu     10.67568750       4.78143171       5.39408791       29      -0.00031498       0.00016000      -0.00218703 
Cu      7.57873032       7.82108247       5.44522344       29      -0.00184149       0.00511410      -0.00649303 
Cu      6.88783620      12.10273490       5.69102881       29      -0.00102913      -0.00297264      -0.00143395 
Cu      8.17971020       4.31389025       5.63335770       29      -0.00107537       0.00000484      -0.00137850 
Cu      5.06991522      10.32974153       5.88456301       29       0.00047098      -0.00413210      -0.00288771 
Cu      5.66872140       3.95641843       5.93232598       29       0.00078594      -0.00122431       0.00446245 
Cu      4.45344549       6.19267298       6.00442715       29      -0.00142422      -0.00192744       0.00569388 
Cu      3.33995025       8.47913332       6.13618226       29       0.00072724      -0.00126227      -0.00139501 
Cu      9.62472866       8.83025256       6.55305757       29       0.00005330      -0.00215709      -0.00314239 
Cu      9.25479559       6.32632405       6.63500774       29      -0.00195378       0.00313358      -0.00286229 
Cu      7.36428296       9.96773101       6.77070845       29      -0.00184103       0.00126954      -0.00488756 
Cu      6.76001078       5.91522907       6.89443895       29      -0.00296855      -0.00072161      -0.00440465 
Cu      5.60249793       8.16526012       6.99362844       29      -0.00405102       0.00263463       0.00075393 
Cu     11.93577292       8.54253224       7.38217564       29       0.00455323       0.00005738      -0.00004541 
Cu     10.75280659      10.85177796       7.46580686       29      -0.00033349       0.00298295       0.00120523 
Cu     11.56320797       5.99159393       7.45301456       29       0.00004816       0.00041772      -0.00084872 
Cu      8.44720811      12.01290751       7.69791594       29      -0.00071320      -0.00138753       0.00174134 
Cu      9.75291402       4.11939623       7.67356853       29       0.00035317      -0.00135197      -0.00432692 
Cu      7.84226634       7.85356615       7.84765425       29      -0.00017277      -0.00226753       0.00412241 
Cu      5.91400545      11.57397445       7.98958254       29      -0.00135226      -0.00010148      -0.00203725 
Cu      7.19997750       3.70478580       7.94633461       29       0.00021434      -0.00161265      -0.00088472 
Cu      4.11201469       9.73585146       8.21383557       29       0.00305443      -0.00126037      -0.00018603 
Cu      4.90924729       4.88184659       8.18774097       29       0.00033871      -0.00096560       0.00162272 
Cu      3.73091816       7.17570341       8.29059559       29      -0.00005703       0.00335245      -0.00253190 
Cu     10.07229185       7.55579971       8.73037236       29       0.00213797      -0.00417097       0.00422795 
Cu      8.89974268       9.81905556       8.76322888       29       0.00035889       0.00157222      -0.00012600 
Cu      8.29418341       5.72209569       8.89666982       29      -0.00255647      -0.00189282       0.00298250 
Cu      6.42900956       9.38351682       9.06036051       29      -0.00141983      -0.00219820      -0.00088436 
Cu      6.05713694       6.88074969       9.13725567       29      -0.00435974      -0.00240914       0.00517153 
Cu     12.32504517       7.24455218       9.52249843       29      -0.00251670      -0.00202994      -0.00177149 
Cu     11.20507518       9.54969051       9.63677643       29       0.00041081       0.00163116       0.00040359 
Cu      9.98577981      11.78168403       9.71449042       29       0.00011301       0.00108078      -0.00086975 
Cu     10.59649299       5.37076404       9.74368861       29       0.00196258      -0.00009398      -0.00212622 
Cu      7.48187381      11.41926239      10.03220481       29       0.00326869      -0.00018674       0.00057781 
Cu      8.75006940       3.56226051       9.95785791       29      -0.00106060       0.00257479      -0.00062332 
Cu      8.13927997       7.88753511      10.24692562       29      -0.00255378       0.00122059      -0.00179465 
Cu      4.99493564      10.93536626      10.27979222       29      -0.00050779      -0.00351278      -0.00010337 
Cu      6.46871637       4.68611964      10.23748758       29       0.00035072      -0.00023872      -0.00121960 
Cu      4.56144418       8.42580514      10.39449780       29      -0.00016143       0.00296522      -0.00096960 
Cu      4.23785721       5.89537660      10.42988668       29       0.00063056       0.00405315       0.00162848 
