124
Lattice="32.37734609999998 0.0 0.0 0.0 32.259949524999996 0.0 0.0 0.0 32.20484302499993" Properties=species:S:1:pos:R:3 pbc="F F F"
Ne      20.11010672      21.08343148      21.20657753
Ne      16.75393613      20.84797288      15.20732082
Ne      22.02486853      20.29047564      14.33152561
Ne      18.79593249      18.90154261      21.10284395
Ne      10.76483041      20.10011168      15.62212767
Ne      10.00000000      17.34306173      16.37841306
Ne      14.79463218      10.79492600      13.22420507
Ne      11.54247937      11.89363682      11.39225516
Ne      17.10183944      17.89141895      14.33053796
Ne      18.87429251      20.79751672      20.72216832
Ne      10.54752569      10.30849205      21.85285375
Ne      13.00124608      16.11540887      20.65718318
Ne      15.98705491      15.80204018      16.09473302
Ne      18.82739007      10.96731397      16.58239818
Ne      17.65992909      17.52966969      15.04674240
Ne      10.33564392      11.07562331      13.45210854
Ne      18.05649047      13.20222372      11.07278276
Ne      18.06000531      10.05746683      16.93147028
Ne      14.86326591      22.21702244      17.45910372
Ne      18.30155287      12.63526477      20.40034830
Ne      21.46834951      21.54516355      21.54687306
Ne      16.06968630      20.28809513      14.31996885
Ne      13.09847213      18.64403736      19.52091660
Ne      18.13114025      20.72692483      16.32944623
Ne      11.34288472      12.86856264      19.15097595
Ne      12.52454316      11.65950288      15.41667231
Ne      19.47517787      18.31733912      18.36075805
Ne      15.94877681      11.06191284      19.66127752
Ne      18.35160933      21.54450768      16.55539719
Ne      12.22828059      13.12892374      15.49003696
Ne      19.33482464      22.16384897      10.00000000
Ne      14.52851083      16.85679833      22.20484302
Ne      18.78863035      18.18332301      19.13769988
Ne      17.67880701      22.17276537      11.76627127
Ne      11.43756828      15.63708603      17.25574974
Ne      19.95321219      16.73913179      11.02249748
Ne      18.16518613      14.17395350      15.85252101
Ne      13.47968862      18.41766948      13.48109121
Ne      19.73623556      18.17375050      12.24527883
Ne      10.12771877      13.32425162      15.09181785
Ne      20.95355186      10.07476676      21.29026844
Ne      14.73757599      21.48906725      15.70669277
Ne      12.85757767      13.36857802      13.76863087
Ne      16.17980729      13.40035015      13.14550555
Ne      17.67378546      17.95973958      13.86042987
Ne      13.14216574      14.01861900      19.29101433
Ne      19.62220505      14.47651061      15.30677583
Ne      22.25055382      21.08867608      20.86917571
Ne      18.63510427      18.30289935      17.41766699
Ne      16.60710749      14.36886915      19.01999078
Ne      17.64714192      11.36842661      11.09728886
Ne      15.01735015      14.26784808      19.91860801
Ne      11.05450558      11.38780343      14.92691376
Ne      11.55284452      11.19535248      10.70205290
Ne      10.19608039      18.73503526      21.43901222
Ne      14.96145032      15.39306773      13.54633732
Ne      16.22181156      17.94865317      10.23072172
Ne      19.98913731      12.51807108      15.82450309
Ne      16.19635204      14.33895293      17.16126670
Ne      16.95631958      10.82713943      18.55825824
Ne      14.08014066      13.85055573      13.61117911
Ne      21.83983622      11.87521257      16.14235650
Ne      18.03286085      21.07921269      17.51389038
Ne      20.57716404      18.36538652      12.51383900
Ne      12.80630733      13.44257788      21.43467176
Ne      15.77242484      12.71020482      10.62148037
Ne      22.35403082      16.71106042      15.08014681
Ne      17.29623453      13.10141753      13.00513328
Ne      18.60079560      11.42645134      14.72506994
Ne      12.08446314      13.60708241      10.14395965
Ne      16.31757030      12.44074398      17.99922636
Ne      18.86382039      17.15812558      19.04468872
Ne      18.74538406      22.25272427      13.48306701
Ne      18.73701411      15.70765994      11.23049640
Ne      13.35167402      13.01697291      13.60109677
Ne      12.95094466      12.50422345      10.32454198
Ne      17.05554952      16.65069362      13.65599467
Ne      16.45035342      14.79890334      10.76917949
Ne      12.71647387      15.57315416      20.50587976
Ne      14.43327796      18.31393813      17.22286542
Ne      17.15716885      19.64798578      16.79069024
Ne      10.52006023      13.93946125      10.61376719
Ne      12.68682342      16.81697589      10.36302871
Ne      17.79280786      21.35657506      16.72732618
Ne      14.15910906      17.46962832      20.45113288
Ne      19.30001570      18.15989603      18.51801545
Ne      12.17666917      14.02995273      19.50183231
Ne      12.04315046      19.19197173      15.07976458
Ne      14.06589688      14.25887523      10.65882816
Ne      14.61306254      16.47520539      12.32315140
Ne      17.69133649      10.29235058      15.68085081
Ne      16.98513033      20.80450242      20.98377183
Ne      21.52082857      10.95910946      14.59674281
Ne      16.78268073      10.00000000      16.22133198
Ne      19.63103345      15.30493740      17.12971449
Ne      21.72373523      18.23923926      16.37040192
Ne      14.62360543      11.00527255      11.39387609
Ne      17.58404027      20.97669582      22.18831535
Ne      19.07884489      16.26762618      14.10705918
Ne      17.46137562      21.73337573      14.22625763
Ne      16.64395867      15.05862591      19.69028708
Ne      21.07871885      12.80209532      10.17526763
Ne      19.35196093      15.34444364      17.37851211
Ne      14.95700970      22.25994953      16.83449052
Ne      22.08944125      17.03021654      16.33713118
Ne      13.84648035      14.04765735      17.51271383
Ne      16.94044742      21.72319820      14.34414128
Ne      11.88974541      16.06268793      21.39559425
Ne      14.71884706      11.49363134      21.46931181
Ne      15.51585383      11.98372633      11.83970432
Ne      18.92333170      10.48121158      18.34149132
Ne      14.29618238      18.51910773      11.57878062
Ne      21.45397992      12.88782643      10.27596259
Ne      16.48065868      15.50147268      13.85862337
Ne      22.37734610      10.97645166      16.13402114
Ne      18.42170284      15.26736163      10.86808424
Ne      15.79444428      13.62917187      12.06610311
Ne      16.42764168      16.70761888      15.80268107
Ne      19.89885143      20.56362604      14.69365480
Ne      16.50479556      21.08246997      21.01926073
Ne      14.27277343      10.56273140      11.76459822
Ne      15.55421683      17.42950077      13.28385917
Ne      21.02218787      21.94628246      11.05881077
Ne      19.18849464      15.58866348      17.23754583
