147
Lattice="1000.0 0.0 0.0 0.0 1000.0 0.0 0.0 0.0 1000.0" Properties=species:S:1:pos:R:3 pbc="F F F"
Cu      11.17436795       6.48763957      16.13801173
Cu       9.61963976       8.50460306      15.96271625
Cu       8.06491157      10.52156656      15.78742077
Cu       6.51018337      12.53853005      15.61212529
Cu      12.09134410       8.74314125      15.37125432
Cu      10.53661590      10.76010474      15.19595884
Cu       8.98188771      12.77706824      15.02066337
Cu       9.61963976       5.15662863      14.61246916
Cu      13.00832024      10.99864293      14.60449692
Cu       8.06491157       7.17359212      14.43717368
Cu      11.45359204      13.01560642      14.42920144
Cu       6.51018337       9.19055562      14.26187820
Cu       4.95545518      11.20751911      14.08658272
Cu      12.09134410       5.39516682      14.02100723
Cu      10.53661590       7.41213031      13.84571175
Cu      13.92529638      13.25414461      13.83773951
Cu       8.98188771       9.42909381      13.67041628
Cu       7.42715952      11.44605730      13.49512080
Cu       5.87243132      13.46302080      13.31982532
Cu      13.00832024       7.65066850      13.25424983
Cu       8.06491157       3.82561769      13.08692659
Cu      11.45359204       9.66763199      13.07895435
Cu       6.51018337       5.84258119      12.91163111
Cu       9.89886385      11.68459549      12.90365887
Cu       4.95545518       7.85954468      12.73633563
Cu       8.34413566      13.70155898      12.72836339
Cu       3.40072699       9.87650818      12.56104016
Cu      10.53661590       4.06415588      12.49546466
Cu      13.92529638       9.90617018      12.48749242
Cu       8.98188771       6.08111937      12.32016918
Cu      12.37056819      11.92313367      12.31219694
Cu       7.42715952       8.09808287      12.14487371
Cu      10.81583999      13.94009717      12.13690146
Cu       5.87243132      10.11504636      11.96957823
Cu      13.00832024       4.30269407      11.90400273
Cu       4.31770313      12.13200986      11.79428275
Cu      11.45359204       6.31965756      11.72870726
Cu      14.84227252      12.16167186      11.72073501
Cu       6.51018337       2.49460676      11.56138402
Cu       9.89886385       8.33662106      11.55341178
Cu      13.28754433      14.17863535      11.54543953
Cu       4.95545518       4.51157025      11.38608854
Cu       8.34413566      10.35358455      11.37811630
Cu       3.40072699       6.52853375      11.21079306
Cu       6.78940747      12.37054805      11.20282082
Cu      13.92529638       6.55819575      11.13724533
Cu       1.84599879       8.54549724      11.03549759
Cu       5.23467927      14.38751154      11.02752534
Cu       8.98188771       2.73314494      10.96992209
Cu      12.37056819       8.57515924      10.96194985
Cu       7.42715952       4.75010844      10.79462661
Cu      10.81583999      10.59212274      10.78665437
Cu       5.87243132       6.76707193      10.61933114
Cu       9.26111180      12.60908623      10.61135889
Cu       4.31770313       8.78403543      10.44403566
Cu       7.70638361      14.62604973      10.43606341
Cu      11.45359204       2.97168313      10.37846017
Cu      14.84227252       8.81369743      10.37048792
Cu       2.76297494      10.80099892      10.26874018
Cu       9.89886385       4.98864662      10.20316469
Cu      13.28754433      10.83066092      10.19519244
Cu       8.34413566       7.00561012      10.02786921
Cu      11.73281614      12.84762442      10.01989696
Cu       6.78940747       9.02257361       9.85257373
Cu      10.17808794      14.86458791       9.84460148
Cu      13.92529638       3.21022132       9.78699824
Cu       5.23467927      11.03953711       9.67727825
Cu      12.37056819       5.22718481       9.61170276
Cu      15.75924866      11.06919911       9.60373051
Cu       3.67995108      13.05650060       9.50198277
Cu      10.81583999       7.24414831       9.43640728
Cu      14.20452047      13.08616260       9.42843503
Cu       5.87243132       3.41909750       9.26908405
Cu       9.26111180       9.26111180       9.26111180
Cu      12.64979228      15.10312610       9.25313956
Cu       4.31770313       5.43606100       9.09378857
Cu       7.70638361      11.27807530       9.08581632
Cu      14.84227252       5.46572300       9.02024083
Cu       2.76297494       7.45302449       8.91849309
Cu       6.15165541      13.29503879       8.91052084
Cu      13.28754433       7.48268649       8.84494535
Cu       4.59692722      15.31200229       8.73522536
Cu       8.34413566       3.65763569       8.67762212
Cu      11.73281614       9.49964999       8.66964987
Cu       6.78940747       5.67459918       8.50232664
Cu      10.17808794      11.51661348       8.49435439
Cu       5.23467927       7.69156268       8.32703116
Cu       8.62335975      13.53357698       8.31905891
Cu      15.75924866       7.72122468       8.25348342
Cu       3.67995108       9.70852617       8.15173568
Cu       7.06863156      15.55054047       8.14376344
Cu      10.81583999       3.89617387       8.08616019
Cu      14.20452047       9.73818817       8.07818794
Cu       9.26111180       5.91313737       7.91086471
Cu      12.64979228      11.75515167       7.90289246
Cu       7.70638361       7.93010086       7.73556923
Cu      11.09506408      13.77211516       7.72759699
Cu       6.15165541       9.94706436       7.56027375
Cu       9.54033589      15.78907866       7.55230151
Cu      13.28754433       4.13471206       7.49469826
Cu      16.67622481       9.97672636       7.48672602
Cu       4.59692722      11.96402785       7.38497827
Cu      11.73281614       6.15167555       7.31940278
Cu      15.12149661      11.99368985       7.31143054
Cu      10.17808794       8.16863905       7.14410730
Cu      13.56676842      14.01065335       7.13613506
Cu       5.23467927       4.34358825       6.97678407
Cu       8.62335975      10.18560254       6.96881182
Cu      12.01204023      16.02761684       6.96083958
Cu       3.67995108       6.36055174       6.80148859
Cu       7.06863156      12.20256604       6.79351634
Cu      14.20452047       6.39021374       6.72794085
Cu       5.51390336      14.21952953       6.61822087
Cu      12.64979228       8.40717724       6.55264537
Cu       7.70638361       4.58212643       6.38532214
Cu      11.09506408      10.42414073       6.37734989
Cu       6.15165541       6.59908993       6.21002666
Cu       9.54033589      12.44110423       6.20205442
Cu       4.59692722       8.61605342       6.03473118
Cu       7.98560770      14.45806772       6.02675894
Cu      15.12149661       8.64571542       5.96118345
Cu      10.17808794       4.82066462       5.79386021
Cu      13.56676842      10.66267892       5.78588797
Cu       8.62335975       6.83762811       5.61856473
Cu      12.01204023      12.67964241       5.61059249
Cu       7.06863156       8.85459161       5.44326925
Cu      10.45731203      14.69660591       5.43529701
Cu       5.51390336      10.87155510       5.26797377
Cu      12.64979228       5.05920280       5.20239828
Cu      11.09506408       7.07616630       5.02710280
Cu       9.54033589       9.09312979       4.85180733
Cu       4.59692722       5.26807899       4.68448409
Cu       7.98560770      11.11009329       4.67651185
Cu       6.43087950      13.12705678       4.50121637
Cu      13.56676842       7.31470449       4.43564088
Cu      12.01204023       9.33166798       4.26034540
Cu       7.06863156       5.50661718       4.09302216
Cu      10.45731203      11.34863148       4.08504992
Cu       5.51390336       7.52358067       3.91772668
Cu       8.90258384      13.36559497       3.90975444
Cu       9.54033589       5.74515536       3.50156023
Cu       7.98560770       7.76211886       3.32626476
Cu       6.43087950       9.77908235       3.15096928
Cu      12.01204023       5.98369355       2.91009831
Cu      10.45731203       8.00065704       2.73480283
Cu       8.90258384      10.01762054       2.55950735
Cu       7.34785565      12.03458403       2.38421187
