147
Lattice="1000.0 0.0 0.0 0.0 1000.0 0.0 0.0 0.0 1000.0" Properties=species:S:1:pos:R:3:tags:I:1 pbc="F F F"
Au      12.20959589      15.30770924      22.39157803        0
Au      13.96471361      17.13875277      22.10366944        0
Au      13.96471361      13.53847282      21.83893503        0
Au      15.71983134      18.96979630      21.81576085        0
Au      15.71983134      15.36951636      21.55102644        0
Au      17.47494906      20.80083983      21.52785226        0
Au      15.71983134      11.76923641      21.28629202        0
Au      17.47494906      17.20055989      21.26311785        0
Au      17.47494906      13.60027994      20.99838343        0
Au      19.23006678      19.03160342      20.97520926        0
Au      11.78818543      17.23655837      20.77355323        0
Au      17.47494906      10.00000000      20.73364902        0
Au      19.23006678      15.43132348      20.71047484        0
Au      11.78818543      13.63627842      20.50881882        0
Au      13.54330315      19.06760190      20.48564464        0
Au      19.23006678      11.83104353      20.44574043        0
Au      20.98518451      17.26236701      20.42256625        0
Au      13.54330315      15.46732196      20.22091023        0
Au      15.29842088      20.89864543      20.19773606        0
Au      20.98518451      13.66208706      20.15783184        0
Au      13.54330315      11.86704201      19.95617581        0
Au      15.29842088      17.29836549      19.93300164        0
Au      22.74030223      15.49313060      19.86992325        0
Au      15.29842088      13.69808554      19.66826722        0
Au      17.05353860      19.12940902      19.64509305        0
Au      15.29842088      10.09780560      19.40353281        0
Au      17.05353860      15.52912908      19.38035863        0
Au      18.80865632      20.96045255      19.35718446        0
Au      11.36677497      19.16540750      19.15552844        0
Au      17.05353860      11.92884913      19.11562422        0
Au      18.80865632      17.36017261      19.09245004        0
Au      11.36677497      15.56512755      18.89079402        0
Au      13.12189269      20.99645103      18.86761985        0
Au      18.80865632      13.75989266      18.82771563        0
Au      20.56377405      19.19121614      18.80454146        0
Au      11.36677497      11.96484761      18.62605960        0
Au      13.12189269      17.39617109      18.60288543        0
Au      18.80865632      10.15961272      18.56298121        0
Au      20.56377405      15.59093620      18.53980704        0
Au      13.12189269      13.79589114      18.33815101        0
Au      14.87701042      19.22721462      18.31497684        0
Au      20.56377405      11.99065625      18.27507262        0
Au      22.31889177      17.42197973      18.25189845        0
Au      13.12189269      10.19561120      18.07341660        0
Au      14.87701042      15.62693467      18.05024243        0
Au      16.63212814      21.05825815      18.02706825        0
Au      22.31889177      13.82169978      17.98716403        0
Au      14.87701042      12.02665473      17.78550801        0
Au      16.63212814      17.45797821      17.76233384        0
Au      10.94536451      21.09425663      17.53750364        0
Au      16.63212814      13.85769826      17.49759942        0
Au      18.38724586      19.28902174      17.47442525        0
Au      10.94536451      17.49397669      17.27276922        0
Au      16.63212814      10.25741832      17.23286500        0
Au      18.38724586      15.68874179      17.20969083        0
Au      20.14236359      21.12006527      17.18651666        0
Au      10.94536451      13.89369674      17.00803481        0
Au      12.70048223      19.32502022      16.98486063        0
Au      18.38724586      12.08846185      16.94495641        0
Au      20.14236359      17.51978533      16.92178224        0
Au      10.94536451      10.29341679      16.74330039        0
Au      12.70048223      15.72474027      16.72012622        0
Au      14.45559996      21.15606375      16.69695204        0
Au      20.14236359      13.91950538      16.65704783        0
Au      21.89748131      19.35082886      16.63387365        0
Au      12.70048223      12.12446033      16.45539180        0
Au      14.45559996      17.55578381      16.43221763        0
Au      20.14236359      10.31922544      16.39231341        0
Au      21.89748131      15.75054892      16.36913924        0
Au      14.45559996      13.95550386      16.16748321        0
Au      16.21071768      19.38682734      16.14430904        0
Au      21.89748131      12.15026897      16.10440482        0
Au      14.45559996      10.35522392      15.90274879        0
Au      14.67165689      18.61197490      10.00000000        4
Au      16.43053431      16.62272786      10.39142579        4
Au      17.19129011      19.17367312      10.73478656        4
Au      18.18941173      14.63348082      10.78285158        4
Au      18.95016753      17.18442608      11.12621235        4
Au      19.94828915      12.64423379      11.17427737        4
Au      13.91090110      16.38129500      11.28424511        4
Au      19.71092332      19.73537134      11.46957311        4
Au      20.70904494      15.19517904      11.51763814        4
Au      15.66977852      14.39204796      11.67567090        4
Au      15.14182983      20.50881113      11.83981451        4
Au      21.46980074      17.74612430      11.86099890        4
Au      17.42865594      12.40280093      12.06709669        4
Au      13.11443793      18.78302654      12.17939857        4
Au      22.23055653      20.29706956      12.20435967        4
Au      15.55109560      18.03658418      12.32627665        3
Au      13.15014531      14.15061510      12.56849023        4
Au      17.66146304      21.07050935      12.57460106        4
Au      17.30997302      16.04733714      12.71770244        3
Au      14.90902272      12.16136806      12.95991602        4
Au      18.07072882      18.59828240      13.06106321        3
Au      19.06885044      14.05809010      13.10912823        3
Au      21.50550812      13.31164774      13.25600632        4
Au      20.18109626      21.63220757      13.30938762        4
Au      19.82960623      16.60903536      13.45248900        3
Au      12.35368213      16.55234665      13.46364369        4
Au      19.47811621      11.58586315      13.59559038        4
Au      22.26626391      15.86259299      13.59936708        4
Au      14.79033981      15.80590428      13.61052177        3
Au      15.61200277      22.40564736      13.67962901        4
Au      20.59036203      19.15998062      13.79584977        3
Au      12.38938951      11.91993520      13.85273534        4
Au      23.02701970      18.41353825      13.94272785        4
Au      16.54921723      13.81665724      14.00194756        3
Au      13.58461087      20.67986278      14.01921308        4
Au      16.02126854      19.93342041      14.16609116        3
Au      11.55721896      18.95407819      14.35879714        4
Au      18.13163598      22.96734558      14.41441557        4
Au      16.95848300      11.34443029      14.48840971        4
Au      13.99387664      18.20763582      14.50567523        3
Au      16.43053431      17.46119346      14.65255331        2
Au      11.59292634      14.32166675      14.74788880        4
Au      22.23055653      20.81526980      14.83788131        4
Au      14.02958402      13.57522438      14.89476688        3
Au      18.54090175      20.49511863      14.90087772        3
Au      18.18941173      15.47194642      15.04397910        2
Au      20.62606941      14.72550405      15.19085718        3
Au      23.06272708      13.97906169      15.33773527        4
Au      14.43884979      11.10299743      15.38122903        4
Au      18.95016753      18.02289168      15.38733987        2
Au      16.08217571      24.30248360      15.51944352        4
Au      18.59867750      12.99971947      15.53044125        3
Au      21.38682520      17.27644931      15.53421795        3
Au      10.79646317      16.72339829      15.64304226        4
Au      21.03533518      12.25327710      15.67731933        4
Au      23.82348287      16.53000694      15.68109603        4
Au      13.23312084      15.97695593      15.78992034        3
Au      14.05478380      22.57669901      15.85902758        4
Au      15.66977852      15.23051356      15.93679842        2
Au      20.18109626      22.15040781      15.94290926        4
Au      16.49144148      21.83025664      16.00590567        3
Au      19.00794328      10.52749251      16.01690339        4
Au      12.02739190      20.85091442      16.19861165        4
Au      14.46404958      20.10447206      16.34548973        3
Au      16.07904429      12.75828661      16.42326057        3
Au      20.59036203      19.67818086      16.42937141        3
Au      12.38938951      12.43813544      16.48625698        4
Au      16.90070725      19.35802969      16.49236782        2
Au      10.00000000      19.12512984      16.53819571        4
Au      23.02701970      18.93173849      16.57624949        4
Au      12.43665767      18.37868747      16.68507380        3
Au      14.87331535      17.63224510      16.83195188        2
Au      16.48831006      10.28605965      16.90972272        4
Au      17.30997302      16.88580274      16.97882996        1
