101
Lattice="17.0859011783 0.0 0.0 0.0 17.0859011783 0.0 0.0 0.0 17.0859011783" Properties=species:S:1:pos:R:3:Z:I:1:forces:R:3 energy=-308.791293207 pbc="F F F"
Cu      8.20114166       9.46454453      14.70606518       29      -0.00057003      -0.00047302      -0.00107048 
Cu      6.13478308      10.60015121      13.77411098       29       0.00084837      -0.00068333      -0.00224309 
Cu      8.67891988       7.01044967      14.24392949       29      -0.00024491       0.00033375      -0.00144674 
Cu      6.56163200       8.12116570      13.32846713       29      -0.00128472       0.00302991       0.00039752 
Cu      4.51035219       9.26459200      12.32394727       29       0.00067546       0.00095367       0.00112018 
Cu      9.17193803       4.59303877      13.70355831       29       0.00024033       0.00111165      -0.00152602 
Cu      7.06858765       5.65931064      12.79391967       29       0.00124498      -0.00090044      -0.00193998 
Cu     10.57895672       8.67344712      14.22487383       29      -0.00214887       0.00182281      -0.00112531 
Cu      4.97420809       6.78607864      11.82984839       29      -0.00185556       0.00113421      -0.00131917 
Cu      2.95685378       7.94067492      10.83823508       29       0.00103076      -0.00109218       0.00250015 
Cu      8.47210749      11.24929227      12.99082196       29      -0.00115254      -0.00084823      -0.00100497 
Cu      5.01291343      11.64965254      11.65763980       29       0.00000029      -0.00003770      -0.00140390 
Cu     11.08090568       6.23147187      13.68873673       29      -0.00079118      -0.00033570       0.00068909 
Cu      8.87323903       8.76868053      12.45249515       29       0.00125359      -0.00016405      -0.00019893 
Cu      6.81788635       9.91883569      11.52920024       29      -0.00041996       0.00092193       0.00190902 
Cu      3.48100396      10.31650882      10.15830832       29       0.00078357       0.00097764      -0.00023177 
Cu     13.19570619       9.63981785      11.85530100       29       0.00065952      -0.00044364      -0.00155308 
Cu      9.34490036       6.32711346      11.93914752       29       0.00031591      -0.00062870      -0.00051752 
Cu      8.43867838       4.04439704      11.35347538       29      -0.00009284      -0.00042511       0.00127229 
Cu      7.25334394       7.40641191      11.02773520       29       0.00124827      -0.00003166      -0.00130725 
Cu     10.85857451      10.48908910      12.48100399       29       0.00055471       0.00054700       0.00023033 
Cu      6.31306030       5.12393680      10.40777420       29       0.00026467       0.00122847       0.00086675 
Cu      5.22843565       8.55472294      10.05567501       29      -0.00165405      -0.00135182      -0.00185383 
Cu     10.91593061       4.39284643      11.88294194       29      -0.00125910      -0.00019679      -0.00034761 
Cu      4.26265402       6.30898737       9.42074908       29       0.00118362      -0.00074426      -0.00001003 
Cu      6.64179332      12.92808753      13.03327062       29       0.00058554       0.00115147       0.00039052 
Cu      4.08078878      12.69853962       9.45081073       29       0.00128586      -0.00137091       0.00093518 
Cu     11.30538014       7.98829424      11.94244233       29       0.00090966      -0.00003866       0.00054467 
Cu      9.90368960      12.71121443      11.43771331       29      -0.00131851      -0.00164508      -0.00017787 
Cu      9.11763294      10.50486170      10.70334687       29      -0.00149652       0.00203521       0.00026148 
Cu      3.33138648       8.45784177       8.39604016       29      -0.00134265      -0.00054234       0.00034144 
Cu     12.83613357       6.03194224      11.84619386       29      -0.00123967       0.00051259       0.00026282 
Cu      5.79794982      10.96057777       9.38042562       29      -0.00357038      -0.00056841       0.00245496 
Cu     12.33798771      11.86577060      10.86454321       29      -0.00092865      -0.00126442       0.00051411 
Cu      9.53924481       8.05016269      10.19992590       29       0.00112290      -0.00107334      -0.00049055 
Cu      8.61816293       5.79103893       9.59224272       29       0.00056456       0.00059946      -0.00155578 
Cu      7.48821016       9.16478851       9.28001673       29       0.00068242       0.00042158      -0.00096657 
Cu      7.72109285       3.55397140       8.94236125       29      -0.00027795       0.00061729      -0.00174740 
Cu      6.54009011       6.92085636       8.63293470       29      -0.00227799       0.00248357      -0.00355833 
Cu      3.87301750      10.86232328       7.69443065       29      -0.00093989       0.00242146       0.00264061 
Cu     13.73818716      10.25749810       9.39140332       29      -0.00310414       0.00902060      -0.00085768 
Cu      5.64513451      13.94609896      10.93873127       29       0.00045826      -0.00030203      -0.00047054 
Cu     11.09965088       6.16404070      10.10108453       29      -0.00177201      -0.00151189      -0.00064672 
Cu      5.63544477       4.68881485       7.97567948       29      -0.00008557       0.00030971      -0.00089037 
Cu     10.55169015      11.94174443       9.16429717       29       0.00061753       0.00035326       0.00017027 
Cu     10.20196383       3.84710714       9.49205151       29       0.00146885      -0.00291293      -0.00223626 
Cu     11.45352814       9.70138402      10.14850453       29      -0.00275884       0.00139573      -0.00063100 
Cu      7.43853550      12.29966829      10.81564222       29       0.00241815      -0.00013921      -0.00489085 
Cu      5.61884272       9.06554789       7.62032683       29       0.00165822      -0.00134722       0.00186594 
Cu     12.64062720       4.27129074      10.01369919       29       0.00301894      -0.00106327       0.00113956 
Cu      8.99415430       8.00773830       2.37983600       29      -0.00053071      -0.00116470      -0.00022117 
Cu      8.49252467      10.49664279       2.75893959       29      -0.00206863       0.00024673      -0.00096934 
Cu      6.62929026       8.77242286       2.90914951       29      -0.00056019      -0.00009572      -0.00101403 
Cu      8.02332604      12.93493950       3.29517969       29       0.00162431       0.00050049       0.00064463 
Cu      6.14301397      11.26133428       3.36232106       29       0.00081166      -0.00020724      -0.00098117 
Cu     10.87965082       8.09812093       4.01639704       29       0.00075636       0.00169209       0.00203706 
Cu      4.29972580       9.54749866       3.51722271       29      -0.00003080       0.00306209       0.00232590 
Cu      7.52154484       6.58456456       3.88080333       29       0.00020488       0.00170708      -0.00024087 
Cu     10.40678156      10.59185511       4.40068864       29      -0.00159260      -0.00120292       0.00016966 
Cu      9.91524384       5.87694205       3.39497633       29      -0.00096176      -0.00085727      -0.00014000 
Cu      9.89794598      13.03260024       4.92298977       29      -0.00125154      -0.00071034       0.00049494 
Cu      8.47621771       8.83645516       4.61454479       29      -0.00122107       0.00023914      -0.00086229 
Cu      5.15637955       7.38352999       4.48560424       29       0.00305900       0.00190876       0.00079509 
Cu     12.55683893       9.47729080       5.42882818       29       0.00009508      -0.00177911      -0.00011188 
Cu      7.99614401      11.30613013       5.08179478       29       0.00182393      -0.00112279       0.00190000 
Cu     12.06758858      11.97490316       5.89060815       29       0.00144027      -0.00098760      -0.00045804 
Cu      6.11726246       9.59821937       5.20476288       29       0.00056629      -0.00217107       0.00044172 
Cu     11.93276662       7.00862127       6.08673392       29      -0.00071070       0.00060052       0.00068251 
Cu      8.13863694      13.26895809       6.75731130       29       0.00074168      -0.00070172      -0.00043463 
Cu      6.07956237       5.22491092       5.50752956       29       0.00159665      -0.00086357      -0.00046124 
Cu      6.24660002      13.11690870       5.09564117       29      -0.00037145       0.00090253       0.00236523 
Cu     10.31332267       8.93058041       6.27671748       29      -0.00016753      -0.00214168      -0.00114942 
Cu      8.47434483       4.46942386       4.94584327       29      -0.00073954       0.00124679       0.00053287 
Cu      4.38453073      11.39289585       5.24205655       29      -0.00151758      -0.00092649       0.00092273 
Cu     14.12904739      10.83596290       6.91703164       29      -0.00043309      -0.00013098       0.00011583 
Cu     10.94376319       4.76618408       5.47115566       29      -0.00033178      -0.00041858       0.00045953 
Cu      6.98527321       7.44819600       6.17658577       29      -0.00107671       0.00066055      -0.00264108 
Cu      9.82627111      11.37446990       6.73037398       29      -0.00076673       0.00042778       0.00013474 
Cu      9.38795451       6.71710089       5.61972937       29       0.00267594      -0.00112513      -0.00000523 
Cu     13.58126403       8.42712365       7.56030813       29       0.00074109      -0.00198515      -0.00050751 
Cu      7.93312402       9.65420723       6.87494338       29      -0.00018559       0.00197761      -0.00047996 
Cu     10.64975835      13.59525705       7.33431493       29       0.00062718       0.00030286      -0.00064983 
Cu      3.78460094       9.00000935       5.93002119       29       0.00023103       0.00036362      -0.00034447 
Cu     11.90698682      10.28202343       7.70895892       29      -0.00063664       0.00075769       0.00044672 
Cu      8.10235143      11.54129144       8.56551607       29      -0.00150182      -0.00013601       0.00088904 
Cu     12.90348207       6.01944102       8.24817852       29       0.00207897       0.00051452      -0.00106080 
Cu      7.03919637       3.13980222       6.54862072       29      -0.00020214      -0.00020508       0.00056603 
Cu      6.40570787      13.36073644       8.64537402       29      -0.00027728      -0.00046225       0.00285663 
Cu      6.23803528      11.45127346       6.93941178       29      -0.00002483      -0.00118940      -0.00008485 
Cu     12.80800279      12.46728637       8.34624063       29      -0.00072398      -0.00087051      -0.00084970 
Cu     11.30881261       7.91047347       8.35126364       29      -0.00044565      -0.00043045      -0.00115200 
Cu      4.53500530      13.21000730       7.00796630       29       0.00021684       0.00145558       0.00126369 
Cu      8.86445843      13.76862978       9.25354537       29      -0.00076521      -0.00034540      -0.00004519 
Cu      9.49229170       3.42500093       7.07473217       29       0.00108871      -0.00043916       0.00324186 
Cu      4.65377039       6.81384065       6.93650358       29       0.00175431       0.00048355      -0.00019537 
Cu      9.71345946       9.74503235       8.49321201       29       0.00182224       0.00061024       0.00093981 
Cu      7.93061075       5.35761503       7.20645945       29       0.00256930      -0.00160069       0.00037884 
Cu     11.94117325       3.79330319       7.62932805       29      -0.00299061       0.00528419       0.00521630 
Cu     10.40065193       5.67919600       7.73101499       29       0.00047639      -0.00158156       0.00031148 
Cu      8.83121452       7.56734327       7.86107023       29      -0.00026096      -0.00295169       0.00049920 
Cu     13.12018379       7.81217431      10.06520674       29       0.00283660      -0.00738677       0.00214074 
