101
Lattice="16.9898751933 0.0 0.0 0.0 16.9898751933 0.0 0.0 0.0 16.9898751933" Properties=species:S:1:pos:R:3:Z:I:1:forces:R:3 energy=-308.947051411 pbc="F F F"
Cu      7.83654154       9.94543208      14.13544775       29       0.00040437      -0.00048315      -0.00206852 
Cu      8.69849633       7.60320226      13.85859535       29       0.00115852      -0.00072630      -0.00283778 
Cu      8.92875003      11.87189375      12.93798917       29      -0.00428357      -0.00259187       0.00096133 
Cu     11.39470020      11.47541030      12.62757976       29      -0.00033831      -0.00122064      -0.00100422 
Cu      9.81475079       9.53287245      12.65482206       29      -0.00029350      -0.00121143       0.00226789 
Cu      6.41725729       6.83240986      13.23645995       29       0.00020209       0.00044457      -0.00377253 
Cu      9.58569211       5.27760228      13.51693477       29      -0.00155749       0.00286592       0.00033330 
Cu      6.55976304      11.13604309      12.33089741       29       0.00142506      -0.00136066      -0.00082198 
Cu     12.29751376       9.15168184      12.32944587       29       0.00122361      -0.00219484       0.00056397 
Cu      5.54120951       9.16928270      13.50835194       29       0.00140818      -0.00244966      -0.00085878 
Cu     10.68919703       7.19530462      12.34511422       29       0.00126600      -0.00236101       0.00205459 
Cu      7.63815618      13.05647818      11.10119459       29      -0.00037984       0.00057673      -0.00061810 
Cu     13.13861648       6.80637710      12.00824412       29      -0.00123623      -0.00013632      -0.00015652 
Cu      7.46193530       8.75989825      11.98517501       29      -0.00177665      -0.00005501       0.00618135 
Cu      4.24606658      10.27992481      11.65692965       29      -0.00012520       0.00003371       0.00071771 
Cu     10.11698579      12.66596205      10.82420915       29      -0.00260283       0.00191465       0.00019152 
Cu     12.56487125      12.18753022      10.53442803       29      -0.00098100       0.00093458      -0.00220016 
Cu     11.55104700       4.85127051      12.00266151       29       0.00183614      -0.00003609       0.00034804 
Cu      8.52434680      10.69892886      10.79239493       29      -0.00167924      -0.00056845       0.00308221 
Cu      8.34875050       6.39190988      11.67270634       29      -0.00053609      -0.00231978       0.00365368 
Cu      7.28964538       4.50356880      12.89184685       29      -0.00086918      -0.00245136      -0.00138785 
Cu     10.98137294      10.27412004      10.49152401       29      -0.00168039      -0.00066446      -0.00189594 
Cu      5.29425678      12.25580036      10.45888820       29       0.00121695       0.00002281       0.00026742 
Cu     13.46050872       9.85924935      10.24883199       29      -0.00030128       0.00156092      -0.00028026 
Cu      5.10450605       7.93685329      11.37212440       29      -0.00198081       0.00328402       0.00188067 
Cu      9.41547350       8.32027649      10.47858017       29       0.00251014      -0.00070382       0.00027339 
Cu      9.23124214       4.00057342      11.38538673       29      -0.00074187       0.00249992       0.00053424 
Cu      6.18200642       9.90228903      10.15406263       29       0.00114774       0.00051234      -0.00181710 
Cu      2.92452044       8.60379883      10.31037413       29       0.00102624       0.00140753      -0.00100495 
Cu     11.86719908       7.90442823      10.17777764       29      -0.00289518       0.00243538      -0.00151154 
Cu      6.36838127      14.17806424       9.24875244       29       0.00281582      -0.00396299       0.00007581 
Cu     14.30764937       7.51883581       9.91436941       29       0.00193804      -0.00012889      -0.00021001 
Cu      8.83299052      13.78664431       8.96252682       29      -0.00192840      -0.00249258      -0.00054198 
Cu     11.31320478      13.32560336       8.66932747       29      -0.00103762       0.00265100      -0.00060327 
Cu     10.30346507       5.94201878      10.16193066       29      -0.00047952      -0.00017654       0.00238858 
Cu     12.78316363       5.52614481       9.87836542       29       0.00028514       0.00144677      -0.00101977 
Cu      7.25163419      11.84041723       8.94396039       29       0.00229629       0.00332175       0.00392935 
Cu      7.07477744       7.52726456       9.84392181       29       0.00111849       0.00483783      -0.00464347 
Cu      6.87593690       3.27873227      10.72836949       29       0.00006923      -0.00175853      -0.00329260 
Cu      9.71918588      11.42906468       8.65243282       29       0.00136251      -0.00205011       0.00028401 
Cu      3.94883984      10.56503689       9.14182585       29       0.00148301       0.00164104      -0.00079927 
Cu     12.21505780      10.99674683       8.35915221       29      -0.00054759       0.00094661       0.00174546 
Cu      5.98001859       5.60277447      11.06388545       29      -0.00222554      -0.00417477      -0.00071347 
Cu     11.17205591       3.58845167       9.83096833       29       0.00137076       0.00129822       0.00141958 
Cu      7.96187133       5.15467767       9.52481328       29       0.00189888      -0.00517371       0.00302886 
Cu      8.14639438       9.46874446       8.63357089       29       0.00234583      -0.00387102       0.00223437 
Cu      3.77100610       6.26373266      10.01576157       29      -0.00204377      -0.00153295      -0.00031063 
Cu     10.61112677       9.05054342       8.33842638       29       0.00138263      -0.00254929       0.00173910 
Cu      5.04048953      12.49948619       7.93737683       29       0.00350635       0.00077818      -0.00487505 
Cu      4.87968629       8.20285759       8.83872894       29       0.00092890       0.00251996      -0.00243272 
Cu     13.08890665       8.65896831       8.04971400       29      -0.00061740       0.00047114       0.00131962 
Cu      9.03904291       7.08528417       8.31795342       29      -0.00062403       0.00219876       0.00000505 
Cu      8.84656890       2.81181096       9.19750461       29       0.00257433      -0.00186294       0.00008588 
Cu      7.22326896      13.43538197       7.00686924       29      -0.00324531      -0.00098093       0.00135708 
Cu     11.49785327       6.67213098       8.02274416       29       0.00101371      -0.00350646       0.00033787 
Cu      5.93801410      10.15316504       7.63553423       29      -0.00413702      -0.00010421       0.00123642 
Cu      5.76540970       5.84216504       8.52619997       29      -0.00037028       0.00108311      -0.00043760 
Cu      2.68222582       8.82083089       7.81368723       29       0.00064720       0.00584762       0.00133504 
Cu      9.69971887      13.05300633       6.70917474       29       0.00014986       0.00099421       0.00108194 
Cu     13.93036213       6.30347231       7.74127684       29       0.00275575      -0.00023546      -0.00204426 
Cu     12.14822245      12.57645393       6.41645918       29      -0.00034353       0.00255654       0.00010644 
Cu      9.92197392       4.70820788       8.00009141       29      -0.00086560      -0.00251943      -0.00178801 
Cu      8.11101588      11.08299352       6.69804931       29       0.00808700      -0.00294239      -0.00439181 
Cu     12.35490254       4.31183210       7.71065442       29       0.00377584       0.00011692       0.00001558 
Cu      6.61953857       3.45335609       8.20034573       29      -0.00365648       0.00009596      -0.00058013 
Cu      6.84299146       7.77261376       7.32714320       29       0.00205303      -0.00057728       0.00464464 
Cu     10.57027233      10.65910828       6.41844337       29       0.00120029       0.00163244      -0.00287310 
Cu      7.61613925       8.61692819       3.12838708       29      -0.00072678       0.00004922      -0.00072986 
Cu      8.48882987       6.28251787       2.85442744       29      -0.00240304      -0.00079886      -0.00015261 
Cu      5.48352116       7.69676110       4.03059028       29       0.00043304       0.00097718      -0.00095554 
Cu      8.98183487      10.30821501       4.42819685       29      -0.00094487      -0.00050348      -0.00031486 
Cu      4.59804617       9.99667630       4.38493310       29      -0.00080486      -0.00155279       0.00167646 
Cu      6.32957967       5.36917122       3.77475681       29       0.00153046       0.00095210      -0.00120081 
Cu     10.71799538       5.62756545       3.84121709       29      -0.00036149      -0.00402308       0.00179076 
Cu     12.31694235       7.57419690       3.88561903       29      -0.00106492       0.00013177      -0.00001561 
Cu      9.85588913       7.97174061       4.11824337       29       0.00137054       0.00147840       0.00045476 
Cu      9.00657250       8.70870138       6.38356570       29      -0.00091614      -0.00255044       0.00121515 
Cu      3.39232816       6.76619762       5.05637724       29      -0.00359504       0.00352635      -0.00075814 
Cu      6.74458220      10.94180978       3.47119425       29      -0.00038591       0.00094314      -0.00245798 
Cu      8.55106126       4.63458691       4.73562747       29      -0.00220339       0.00274368       0.00328584 
Cu      7.68804939       7.01844044       5.08183657       29      -0.00105488      -0.00142298      -0.00241328 
Cu      8.60327197       3.04105874       6.69398241       29       0.00072543       0.00455983       0.00276413 
Cu      8.09727854      12.63441729       4.76378610       29       0.00137319      -0.00145542      -0.00204179 
Cu     10.75797259       3.97942141       5.77232224       29       0.00006164      -0.00087655       0.00213016 
Cu      6.80293462       9.37993601       5.39486088       29      -0.00090231       0.00059027      -0.00045256 
Cu      4.41960337       4.19876450       7.20041282       29      -0.00015628      -0.00122081      -0.00071876 
Cu      9.89022103       6.33201492       6.06916615       29       0.00203900       0.00055163       0.00235296 
Cu     13.89312422       7.90882188       5.80132848       29       0.00009242      -0.00163710      -0.00208561 
Cu     12.36769577       5.91643538       5.76646756       29      -0.00052658       0.00085189       0.00180618 
Cu     11.47297120       9.92035615       4.17995453       29       0.00137954      -0.00037076      -0.00173942 
Cu      5.53215798       6.08621976       6.01914375       29      -0.00258795      -0.00025552       0.00310399 
Cu     10.57334246      12.24017770       4.50149359       29      -0.00785338       0.00398787       0.00118886 
Cu     13.03988013      10.25359871       6.08285659       29       0.00064547       0.00269364      -0.00271910 
Cu      3.73987523      10.76328041       6.61886980       29       0.00174388       0.00115027      -0.00177004 
Cu     11.45699365       8.29020981       6.10441030       29      -0.00011310       0.00026409      -0.00058951 
Cu      7.72583394       5.38553571       7.00477595       29       0.00219068       0.00154858       0.00030040 
Cu      4.67398173       3.94750080       9.69351505       29      -0.00164086       0.00028817      -0.00158940 
Cu      3.52001339       6.49299057       7.54654084       29       0.00000604       0.00171530       0.00434074 
Cu      4.64557861       8.44099742       6.32966237       29      -0.00069642      -0.00293031      -0.00343655 
Cu      5.88466116      11.75126480       5.67710471       29      -0.00120699      -0.00050920       0.00025410 
Cu      6.37792963       3.74327611       5.69189665       29       0.00305071       0.00030811       0.00158831 
