147
Lattice="45.26304011 0.0 0.0 0.0 45.26304011 0.0 0.0 0.0 45.26304011" Properties=species:S:1:pos:R:3:tags:I:1 pbc="F F F"
Cu      22.63152006      22.63152006      22.63152006        1
Cu      26.84202674      22.63152006      20.02928381        2
Cu      26.84202674      22.63152006      25.23375630        2
Cu      18.42101337      22.63152006      20.02928381        2
Cu      18.42101337      22.63152006      25.23375630        2
Cu      20.02928381      26.84202674      22.63152006        2
Cu      25.23375630      26.84202674      22.63152006        2
Cu      20.02928381      18.42101337      22.63152006        2
Cu      25.23375630      18.42101337      22.63152006        2
Cu      22.63152006      20.02928381      26.84202674        2
Cu      22.63152006      25.23375630      26.84202674        2
Cu      22.63152006      20.02928381      18.42101337        2
Cu      22.63152006      25.23375630      18.42101337        2
Cu      31.05253343      22.63152006      17.42704757        3
Cu      31.05253343      22.63152006      22.63152006        3
Cu      31.05253343      22.63152006      27.83599254        3
Cu      14.21050669      22.63152006      17.42704757        3
Cu      14.21050669      22.63152006      22.63152006        3
Cu      14.21050669      22.63152006      27.83599254        3
Cu      17.42704757      31.05253343      22.63152006        3
Cu      22.63152006      31.05253343      22.63152006        3
Cu      27.83599254      31.05253343      22.63152006        3
Cu      17.42704757      14.21050669      22.63152006        3
Cu      22.63152006      14.21050669      22.63152006        3
Cu      27.83599254      14.21050669      22.63152006        3
Cu      22.63152006      17.42704757      31.05253343        3
Cu      22.63152006      22.63152006      31.05253343        3
Cu      22.63152006      27.83599254      31.05253343        3
Cu      22.63152006      17.42704757      14.21050669        3
Cu      22.63152006      22.63152006      14.21050669        3
Cu      22.63152006      27.83599254      14.21050669        3
Cu      26.84202674      20.02928381      29.44426298        3
Cu      26.84202674      25.23375630      29.44426298        3
Cu      26.84202674      20.02928381      15.81877713        3
Cu      26.84202674      25.23375630      15.81877713        3
Cu      18.42101337      20.02928381      29.44426298        3
Cu      18.42101337      25.23375630      29.44426298        3
Cu      18.42101337      20.02928381      15.81877713        3
Cu      18.42101337      25.23375630      15.81877713        3
Cu      29.44426298      26.84202674      20.02928381        3
Cu      29.44426298      26.84202674      25.23375630        3
Cu      15.81877713      26.84202674      20.02928381        3
Cu      15.81877713      26.84202674      25.23375630        3
Cu      29.44426298      18.42101337      20.02928381        3
Cu      29.44426298      18.42101337      25.23375630        3
Cu      15.81877713      18.42101337      20.02928381        3
Cu      15.81877713      18.42101337      25.23375630        3
Cu      20.02928381      29.44426298      26.84202674        3
Cu      25.23375630      29.44426298      26.84202674        3
Cu      20.02928381      15.81877713      26.84202674        3
Cu      25.23375630      15.81877713      26.84202674        3
Cu      20.02928381      29.44426298      18.42101337        3
Cu      25.23375630      29.44426298      18.42101337        3
Cu      20.02928381      15.81877713      18.42101337        3
Cu      25.23375630      15.81877713      18.42101337        3
Cu      35.26304011      22.63152006      14.82481133        4
Cu      35.26304011      22.63152006      20.02928381        4
Cu      35.26304011      22.63152006      25.23375630        4
Cu      35.26304011      22.63152006      30.43822878        4
Cu      10.00000000      22.63152006      14.82481133        4
Cu      10.00000000      22.63152006      20.02928381        4
Cu      10.00000000      22.63152006      25.23375630        4
Cu      10.00000000      22.63152006      30.43822878        4
Cu      14.82481133      35.26304011      22.63152006        4
Cu      20.02928381      35.26304011      22.63152006        4
Cu      25.23375630      35.26304011      22.63152006        4
Cu      30.43822878      35.26304011      22.63152006        4
Cu      14.82481133      10.00000000      22.63152006        4
Cu      20.02928381      10.00000000      22.63152006        4
Cu      25.23375630      10.00000000      22.63152006        4
Cu      30.43822878      10.00000000      22.63152006        4
Cu      22.63152006      14.82481133      35.26304011        4
Cu      22.63152006      20.02928381      35.26304011        4
Cu      22.63152006      25.23375630      35.26304011        4
Cu      22.63152006      30.43822878      35.26304011        4
Cu      22.63152006      14.82481133      10.00000000        4
Cu      22.63152006      20.02928381      10.00000000        4
Cu      22.63152006      25.23375630      10.00000000        4
Cu      22.63152006      30.43822878      10.00000000        4
Cu      31.05253343      20.02928381      32.04649922        4
Cu      26.84202674      17.42704757      33.65476967        4
Cu      31.05253343      25.23375630      32.04649922        4
Cu      26.84202674      22.63152006      33.65476967        4
Cu      26.84202674      27.83599254      33.65476967        4
Cu      31.05253343      20.02928381      13.21654089        4
Cu      26.84202674      17.42704757      11.60827044        4
Cu      31.05253343      25.23375630      13.21654089        4
Cu      26.84202674      22.63152006      11.60827044        4
Cu      26.84202674      27.83599254      11.60827044        4
Cu      14.21050669      20.02928381      32.04649922        4
Cu      18.42101337      17.42704757      33.65476967        4
Cu      14.21050669      25.23375630      32.04649922        4
Cu      18.42101337      22.63152006      33.65476967        4
Cu      18.42101337      27.83599254      33.65476967        4
Cu      14.21050669      20.02928381      13.21654089        4
Cu      18.42101337      17.42704757      11.60827044        4
Cu      14.21050669      25.23375630      13.21654089        4
Cu      18.42101337      22.63152006      11.60827044        4
Cu      18.42101337      27.83599254      11.60827044        4
Cu      32.04649922      31.05253343      20.02928381        4
Cu      33.65476967      26.84202674      17.42704757        4
Cu      32.04649922      31.05253343      25.23375630        4
Cu      33.65476967      26.84202674      22.63152006        4
Cu      33.65476967      26.84202674      27.83599254        4
Cu      13.21654089      31.05253343      20.02928381        4
Cu      11.60827044      26.84202674      17.42704757        4
Cu      13.21654089      31.05253343      25.23375630        4
Cu      11.60827044      26.84202674      22.63152006        4
Cu      11.60827044      26.84202674      27.83599254        4
Cu      32.04649922      14.21050669      20.02928381        4
Cu      33.65476967      18.42101337      17.42704757        4
Cu      32.04649922      14.21050669      25.23375630        4
Cu      33.65476967      18.42101337      22.63152006        4
Cu      33.65476967      18.42101337      27.83599254        4
Cu      13.21654089      14.21050669      20.02928381        4
Cu      11.60827044      18.42101337      17.42704757        4
Cu      13.21654089      14.21050669      25.23375630        4
Cu      11.60827044      18.42101337      22.63152006        4
Cu      11.60827044      18.42101337      27.83599254        4
Cu      20.02928381      32.04649922      31.05253343        4
Cu      17.42704757      33.65476967      26.84202674        4
Cu      25.23375630      32.04649922      31.05253343        4
Cu      22.63152006      33.65476967      26.84202674        4
Cu      27.83599254      33.65476967      26.84202674        4
Cu      20.02928381      13.21654089      31.05253343        4
Cu      17.42704757      11.60827044      26.84202674        4
Cu      25.23375630      13.21654089      31.05253343        4
Cu      22.63152006      11.60827044      26.84202674        4
Cu      27.83599254      11.60827044      26.84202674        4
Cu      20.02928381      32.04649922      14.21050669        4
Cu      17.42704757      33.65476967      18.42101337        4
Cu      25.23375630      32.04649922      14.21050669        4
Cu      22.63152006      33.65476967      18.42101337        4
Cu      27.83599254      33.65476967      18.42101337        4
Cu      20.02928381      13.21654089      14.21050669        4
Cu      17.42704757      11.60827044      18.42101337        4
Cu      25.23375630      13.21654089      14.21050669        4
Cu      22.63152006      11.60827044      18.42101337        4
Cu      27.83599254      11.60827044      18.42101337        4
Cu      29.44426298      15.81877713      29.44426298        4
Cu      29.44426298      29.44426298      29.44426298        4
Cu      29.44426298      15.81877713      15.81877713        4
Cu      29.44426298      29.44426298      15.81877713        4
Cu      15.81877713      15.81877713      29.44426298        4
Cu      15.81877713      29.44426298      29.44426298        4
Cu      15.81877713      15.81877713      15.81877713        4
Cu      15.81877713      29.44426298      15.81877713        4
