147
Lattice="1000.0 0.0 0.0 0.0 1000.0 0.0 0.0 0.0 1000.0" Properties=species:S:1:pos:R:3:tags:I:1 pbc="F F F"
Ne       1.13069879       1.84535203       3.85518243        0
Ne       1.56947822       2.30311292       3.78320528        0
Ne       1.56947822       1.40304293       3.71702168        0
Ne       2.00825765       2.76087380       3.71122813        0
Ne       2.00825765       1.86080381       3.64504453        0
Ne       2.44703708       3.21863468       3.63925098        0
Ne       2.00825765       0.96073383       3.57886092        0
Ne       2.44703708       2.31856470       3.57306738        0
Ne       2.44703708       1.41849471       3.50688378        0
Ne       2.88581651       2.77632558       3.50109023        0
Ne       1.02534617       2.32756432       3.45067623        0
Ne       2.44703708       0.51842473       3.44070017        0
Ne       2.88581651       1.87625559       3.43490663        0
Ne       1.02534617       1.42749433       3.38449263        0
Ne       1.46412560       2.78532520       3.37869908        0
Ne       2.88581651       0.97618561       3.36872303        0
Ne       3.32459594       2.33401648       3.36292948        0
Ne       1.46412560       1.88525521       3.31251548        0
Ne       1.90290504       3.24308608       3.30672194        0
Ne       3.32459594       1.43394649       3.29674588        0
Ne       1.46412560       0.98518523       3.24633187        0
Ne       1.90290504       2.34301610       3.24053833        0
Ne       3.76337537       1.89170737       3.22476873        0
Ne       1.90290504       1.44294611       3.17435473        0
Ne       2.34168447       2.80077698       3.16856118        0
Ne       1.90290504       0.54287613       3.10817112        0
Ne       2.34168447       1.90070699       3.10237758        0
Ne       2.78046390       3.25853786       3.09658403        0
Ne       0.91999356       2.80977660       3.04617003        0
Ne       2.34168447       1.00063701       3.03619398        0
Ne       2.78046390       2.35846788       3.03040043        0
Ne       0.91999356       1.90970661       2.97998642        0
Ne       1.35877299       3.26753748       2.97419288        0
Ne       2.78046390       1.45839789       2.96421683        0
Ne       3.21924333       2.81622876       2.95842328        0
Ne       0.91999356       1.00963663       2.91380282        0
Ne       1.35877299       2.36746750       2.90800928        0
Ne       2.78046390       0.55832790       2.89803322        0
Ne       3.21924333       1.91615877       2.89223968        0
Ne       1.35877299       1.46739751       2.84182567        0
Ne       1.79755242       2.82522838       2.83603213        0
Ne       3.21924333       1.01608879       2.82605607        0
Ne       3.65802276       2.37391966       2.82026253        0
Ne       1.35877299       0.56732753       2.77564207        0
Ne       1.79755242       1.92515839       2.76984853        0
Ne       2.23633185       3.28298926       2.76405498        0
Ne       3.65802276       1.47384967       2.75407893        0
Ne       1.79755242       1.02508841       2.70366492        0
Ne       2.23633185       2.38291928       2.69787138        0
Ne       0.81464094       3.29198888       2.64166383        0
Ne       2.23633185       1.48284929       2.63168778        0
Ne       2.67511128       2.84068016       2.62589423        0
Ne       0.81464094       2.39191890       2.57548023        0
Ne       2.23633185       0.58277930       2.56550417        0
Ne       2.67511128       1.94061017       2.55971063        0
Ne       3.11389071       3.29844104       2.55391709        0
Ne       0.81464094       1.49184891       2.50929662        0
Ne       1.25342037       2.84967978       2.50350308        0
Ne       2.67511128       1.04054019       2.49352702        0
Ne       3.11389071       2.39837106       2.48773348        0
Ne       0.81464094       0.59177892       2.44311302        0
Ne       1.25342037       1.94960979       2.43731947        0
Ne       1.69219981       3.30744066       2.43152593        0
Ne       3.11389071       1.49830107       2.42154988        0
Ne       3.55267014       2.85613194       2.41575633        0
Ne       1.25342037       1.04953981       2.37113587        0
Ne       1.69219981       2.40737068       2.36534233        0
Ne       3.11389071       0.59823108       2.35536627        0
Ne       3.55267014       1.95606196       2.34957273        0
Ne       1.69219981       1.50730069       2.29915872        0
Ne       2.13097923       2.86513156       2.29336518        0
Ne       3.55267014       1.05599197       2.28338912        0
Ne       1.69219981       0.60723070       2.23297512        0
Ne       1.74621404       2.67141845       0.75728792        4
Ne       2.18593339       2.17410669       0.85514437        4
Ne       2.37612234       2.81184301       0.94098456        4
Ne       2.62565275       1.67679493       0.95300082        4
Ne       2.81584170       2.31453124       1.03884101        4
Ne       3.06537210       1.17948317       1.05085726        4
Ne       1.55602509       2.11374847       1.07834920        4
Ne       3.00603065       2.95226756       1.12468120        4
Ne       3.25556105       1.81721949       1.13669745        4
Ne       1.99574444       1.61643672       1.17620565        4
Ne       1.86375727       3.14562751       1.21724155        4
Ne       3.44575000       2.45495580       1.22253765        4
Ne       2.43546380       1.11912496       1.27406209        4
Ne       1.35690930       2.71418136       1.30213756        4
Ne       3.63593895       3.09269212       1.30837784        4
Ne       1.96607372       2.52757077       1.33885708        3
Ne       1.36583614       1.55607850       1.39941048        4
Ne       2.49366558       3.28605206       1.40093819        4
Ne       2.40579307       2.03025901       1.43671353        3
Ne       1.80555549       1.05876674       1.49726692        4
Ne       2.59598202       2.66799533       1.52255372        3
Ne       2.84551242       1.53294725       1.53456998        3
Ne       3.45467684       1.34633666       1.57128950        4
Ne       3.12357388       3.42647662       1.58463482        4
Ne       3.03570137       2.17068357       1.62041017        3
Ne       1.16672035       2.15651139       1.62319884        4
Ne       2.94782887       0.91489051       1.65618551        4
Ne       3.64486579       1.98407297       1.65712969        4
Ne       1.77588477       1.96990080       1.65991836        3
Ne       1.98130051       3.61983656       1.67719517        4
Ne       3.22589032       2.80841988       1.70625036        3
Ne       1.17564719       0.99840852       1.72047175        4
Ne       3.83505474       2.62180929       1.74296988        4
Ne       2.21560412       1.47258903       1.75777481        3
Ne       1.47445253       3.18839042       1.76209119        4
Ne       2.08361695       3.00177983       1.79881071        3
Ne       0.96760455       2.75694427       1.84698721        4
Ne       2.61120881       3.76026112       1.86089181        4
Ne       2.31792057       0.85453230       1.87939035        4
Ne       1.57676898       2.57033368       1.88370673        3
Ne       2.18593339       2.38372309       1.92042625        2
Ne       0.97653140       1.59884141       1.94426012        4
Ne       3.63593895       3.22224217       1.96675825        4
Ne       1.58569582       1.41223082       1.98097964        3
Ne       2.71352525       3.14220438       1.98250735        3
Ne       2.62565275       1.88641133       2.01828269        2
Ne       3.23481717       1.69980074       2.05500222        3
Ne       3.84398158       1.51319015       2.09172174        4
Ne       1.68801226       0.79417408       2.10259518        4
Ne       2.81584170       2.52414765       2.10412289        2
Ne       2.09884374       4.09404562       2.13714880        4
Ne       2.72796919       1.26835459       2.13989823        3
Ne       3.42500611       2.33753705       2.14084241        3
Ne       0.77741561       2.19927430       2.16804848        4
Ne       3.33713361       1.08174400       2.17661775        4
Ne       4.03417053       2.15092646       2.17756193        4
Ne       1.38658002       2.01266371       2.20476801        3
Ne       1.59199577       3.66259948       2.22204481        4
Ne       1.99574444       1.82605311       2.24148753        2
Ne       3.12357388       3.55602668       2.24301524        4
Ne       2.20116018       3.47598889       2.25876434        3
Ne       2.83028564       0.65029785       2.26151377        4
Ne       1.08514779       3.23115333       2.30694083        4
Ne       1.69431221       3.04454274       2.34366035        3
Ne       2.09806089       1.20799638       2.36310306        3
Ne       3.22589032       2.93796994       2.36463077        3
Ne       1.17564719       1.12795859       2.37885217        4
Ne       2.30347663       2.85793215       2.38037988        2
Ne       0.57829982       2.79970718       2.39183685        4
Ne       3.83505474       2.75135935       2.40135029        4
Ne       1.18746423       2.61309659       2.42855637        3
Ne       1.79662865       2.42648600       2.46527589        2
Ne       2.20037733       0.58993964       2.48471860        4
Ne       2.40579307       2.23987541       2.50199541        1
