147
Lattice="1000.0 0.0 0.0 0.0 1000.0 0.0 0.0 0.0 1000.0" Properties=species:S:1:pos:R:3:tags:I:1 pbc="F F F"
Ne       2.25385455       2.95101351       4.14418030        4
Ne       2.61326332       2.41132830       3.97151536        4
Ne       1.94292745       2.38811057       3.95257498        4
Ne       2.97267210       1.87164308       3.79885041        4
Ne       2.30233622       1.84842536       3.77991003        4
Ne       2.80542684       3.02136364       3.76859163        4
Ne       1.63200035       1.82520763       3.76096965        4
Ne       1.72080061       2.98379657       3.73794546        4
Ne       3.33208087       1.33195786       3.62618546        4
Ne       2.25385455       3.37516850       3.62423749        4
Ne       2.66174499       1.30874014       3.60724508        4
Ne       3.16483561       2.48167843       3.59592668        4
Ne       1.99140912       1.28552241       3.58830471        4
Ne       1.32107325       1.26230469       3.56936433        4
Ne       1.40987351       2.42089364       3.54634013        4
Ne       2.27809538       2.74286802       3.54140260        3
Ne       3.52424438       1.94199321       3.42326174        4
Ne       3.35699913       3.09171378       3.39300296        4
Ne       2.63750416       2.20318281       3.36873765        3
Ne       1.09894641       1.85799070       3.35473480        4
Ne       1.96716829       2.17996509       3.34979727        3
Ne       1.18774668       3.01657964       3.33171061        4
Ne       2.80542684       3.44551863       3.24864882        4
Ne       3.71640790       2.55202856       3.22033801        4
Ne       1.72080061       3.40795156       3.21800264        4
Ne       2.99691293       1.66349759       3.19607270        3
Ne       2.32657706       1.64027987       3.17713232        3
Ne       2.82966768       2.81321816       3.16581393        3
Ne       1.65624119       1.61706215       3.15819195        3
Ne       0.87681958       2.45367670       3.14010528        4
Ne       1.74504145       2.77565109       3.13516775        3
Ne       3.02115377       1.03119713       3.11323780        4
Ne       2.25385455       3.79932349       3.10429468        4
Ne       2.35081790       1.00797940       3.09429743        4
Ne       1.68048203       0.98476168       3.07535705        4
Ne       2.27809538       3.16702301       3.02145978        3
Ne       3.90857141       3.16206391       3.01741429        4
Ne       3.55420771       1.42256905       2.99952985        4
Ne       3.18907645       2.27353294       2.99314898        3
Ne       1.43411435       2.21274815       2.94356242        3
Ne       2.30233622       2.53472254       2.93862489        2
Ne       1.12890974       1.33856653       2.93100291        4
Ne       0.65469274       3.04936271       2.92547576        4
Ne       3.35699913       3.51586877       2.87306015        4
Ne       1.18774668       3.44073463       2.81176780        4
Ne       3.74637122       2.03260439       2.79660612        4
Ne       3.38123996       2.88356829       2.79022525        3
Ne       2.66174499       1.99503733       2.76595994        2
Ne       1.99140912       1.97181960       2.74701956        2
Ne       1.21198751       2.80843416       2.72893290        3
Ne       2.80542684       3.86967362       2.72870601        4
Ne       0.90678290       1.93425253       2.71637339        4
Ne       1.72080061       3.83210655       2.69805983        4
Ne       2.68598583       1.36273686       2.68312505        3
Ne       2.01564996       1.33951913       2.66418467        3
Ne       2.82966768       3.23737315       2.64587111        3
Ne       1.74504145       3.19980608       2.61522494        3
Ne       2.71022667       0.73043638       2.60029015        4
Ne       3.93853474       2.64263974       2.59368239        4
Ne       2.25385455       4.22347848       2.58435187        4
Ne       2.03989080       0.70721866       2.58134977        4
Ne       3.21903977       1.75410878       2.56941708        3
Ne       2.85390851       2.60507268       2.56303622        2
Ne       1.76928229       2.56750561       2.53239004        2
Ne       1.46407767       1.69332399       2.51983053        3
Ne       0.68465606       2.52993854       2.50174386        4
Ne       2.27809538       3.59117800       2.50151697        3
Ne       3.24328060       1.12180831       2.48658219        4
Ne       1.48831851       1.06102352       2.43699563        4
Ne       2.30233622       2.95887753       2.41868208        2
Ne       3.71640790       3.23832575       2.37905287        4
Ne       3.77633454       1.51318023       2.37287423        4
Ne       3.41120328       2.36414413       2.36649336        3
Ne       2.32657706       2.32657706       2.33584718        1
Ne       1.24195083       2.28900999       2.30520101        3
Ne       0.87681958       3.13997389       2.29882014        4
Ne       0.93674622       1.41482837       2.29264149        4
Ne       2.35081790       1.69427659       2.25301229        2
Ne       3.16483561       3.59213060       2.23469873        4
Ne       1.40987351       3.53134581       2.18511218        4
Ne       2.37505873       1.06197611       2.17017739        3
Ne       3.96849806       2.12321558       2.16995050        4
Ne       3.18907645       2.95983013       2.15186383        3
Ne       2.88387183       2.08564851       2.13930432        2
Ne       1.79924561       2.04808144       2.10865815        2
Ne       1.43411435       2.89904534       2.10227728        3
Ne       2.61326332       3.94593546       2.09034459        4
Ne       2.39929957       0.42967564       2.08734250        4
Ne       0.71461938       2.01051438       2.07801197        4
Ne       1.94292745       3.92271773       2.07140421        4
Ne       2.90811267       1.45334804       2.05646943        3
Ne       1.82348644       1.41578097       2.02582325        3
Ne       2.63750416       3.31363499       2.00750970        3
Ne       1.96716829       3.29041726       1.98856932        3
Ne       2.93235351       0.82104756       1.97363453        4
Ne       3.74637122       2.71890158       1.95532098        4
Ne       1.84772728       0.78348050       1.94298836        4
Ne       3.44116660       1.84471996       1.94276147        3
Ne       2.66174499       2.68133452       1.92467480        2
Ne       1.99140912       2.65811679       1.90573442        2
Ne       1.27191416       1.76958583       1.88146912        3
Ne       0.90678290       2.62054973       1.87508825        4
Ne       3.46540744       1.21241949       1.85992657        4
Ne       1.29615499       1.13728535       1.79863422        4
Ne       3.99846138       1.60379141       1.74621861        4
Ne       3.52424438       3.31458759       1.74069146        4
Ne       2.35081790       2.11843157       1.73306947        2
Ne       3.21903977       2.44040597       1.72813194        3
Ne       1.46407767       2.37962118       1.67854539        3
Ne       1.09894641       3.23058507       1.67216452        4
Ne       0.74458271       1.49109021       1.65428008        4
Ne       2.37505873       1.48613110       1.65023458        3
Ne       2.97267210       3.66839244       1.59633732        4
Ne       2.30233622       3.64517472       1.57739694        4
Ne       2.39929957       0.85383063       1.56739968        4
Ne       1.63200035       3.62195700       1.55845656        4
Ne       2.90811267       1.87750303       1.53652662        3
Ne       3.77633454       2.19947742       1.53158909        4
Ne       2.99691293       3.03609197       1.51350242        3
Ne       1.82348644       1.83993596       1.50588044        3
Ne       2.32657706       3.01287425       1.49456204        3
Ne       1.65624119       2.98965652       1.47562166        3
Ne       2.93235351       1.24520256       1.45369172        4
Ne       0.93674622       2.10112556       1.45135635        4
Ne       1.84772728       1.20763549       1.42304554        4
Ne       3.46540744       1.63657448       1.33998376        4
Ne       2.68598583       2.47318903       1.32189709        3
Ne       3.55420771       2.79516342       1.31695956        4
Ne       2.01564996       2.44997131       1.30295672        3
Ne       1.29615499       1.56144034       1.27869141        4
Ne       1.12890974       2.71116091       1.24843263        4
Ne       2.37505873       1.91028609       1.13029177        3
Ne       1.38317310       1.15210963       0.50897382        0
Ne       1.99841191       1.31855835       0.54105435        0
Ne       2.61365071       1.48500707       0.57313490        0
Ne       3.22888952       1.65145579       0.60521544        0
Ne       1.21366105       1.75623015       0.62540916        0
Ne       1.82889985       1.92267887       0.65748970        0
Ne       2.44413866       2.08912759       0.68957024        0
Ne       3.05937746       2.25557631       0.72165078        0
Ne       1.04414899       2.36035067       0.74184450        0
Ne       1.65938779       2.52679939       0.77392504        0
Ne       2.27462660       2.69324811       0.80600558        0
Ne       2.88986540       2.85969683       0.83808613        0
Ne       0.87463693       2.96447118       0.85827984        0
Ne       1.48987574       3.13091990       0.89036039        0
Ne       1.77554853       0.84787365       0.90989165        0
