147
Lattice="1000.0 0.0 0.0 0.0 1000.0 0.0 0.0 0.0 1000.0" Properties=species:S:1:pos:R:3:tags:I:1 pbc="F F F"
Ne       2.08130135       2.72524059       4.31583146        4
Ne       2.70916817       2.71507718       4.07934057        4
Ne       2.32208761       2.16947432       4.02705158        4
Ne       2.32208761       3.25418232       3.98043526        4
Ne       1.69577808       2.37137836       3.89582990        4
Ne       1.69577808       3.04176477       3.86701943        4
Ne       3.33703500       2.70491377       3.84284968        4
Ne       2.94995443       2.15931091       3.79056069        4
Ne       2.94995443       3.24401891       3.74394437        4
Ne       2.56287386       1.61370806       3.73827170        4
Ne       2.20373302       2.69834919       3.69009951        3
Ne       2.56287386       3.78312405       3.64503907        4
Ne       1.93656434       1.81561209       3.60705002        4
Ne       3.96490182       2.69475036       3.60635879        4
Ne       2.12756408       1.57286712       0.42367364        0
Ne       2.59395715       1.98118662       0.57535031        0
Ne       1.69198329       2.01007048       0.58607967        0
Ne       3.06035023       2.38950612       0.72702698        0
Ne       2.15837636       2.41838998       0.73775634        0
Ne       1.25640249       2.44727384       0.74848570        0
Ne       2.57855101       1.40129224       0.84131699        0
Ne       1.67657714       1.43017610       0.85204636        0
Ne       3.52674330       2.79782562       0.87870364        0
Ne       2.62476944       2.82670948       0.88943301        0
Ne       1.72279557       2.85559334       0.90016237        0
Ne       0.82082170       2.88447721       0.91089173        0
Ne       3.04494409       1.80961174       0.99299366        0
Ne       2.14297022       1.83849560       1.00372302        0
Ne       1.24099636       1.86737946       1.01445239        0
Ne       3.09116251       3.23502898       1.04110968        0
Ne       2.18918864       3.26391285       1.05183904        0
Ne       1.28721478       3.29279671       1.06256840        0
Ne       3.51133716       2.21793123       1.14467033        0
Ne       2.60936329       2.24681510       1.15539969        0
Ne       1.70738943       2.27569896       1.16612906        0
Ne       0.80541556       2.30458282       1.17685842        0
Ne       2.65558172       3.67223234       1.20351571        0
Ne       1.75360785       3.70111621       1.21424507        0
Ne       3.02953794       1.22971735       1.25896034        0
Ne       2.12756408       1.25860121       1.26968971        0
Ne       1.22559021       1.28748507       1.28041907        0
Ne       3.07575637       2.65513459       1.30707636        0
Ne       2.17378250       2.68401846       1.31780572        0
Ne       1.27180864       2.71290232       1.32853509        0
Ne       2.22000093       4.10943571       1.36592174        0
Ne       3.49593102       1.63803685       1.41063701        0
Ne       2.59395715       1.66692071       1.42136638        0
Ne       1.69198329       1.69580457       1.43209574        0
Ne       0.79000942       1.72468844       1.44282510        0
Ne       3.54214944       3.06345409       1.45875303        0
Ne       2.64017558       3.09233796       1.46948239        0
Ne       1.73820171       3.12122182       1.48021176        0
Ne       0.83622785       3.15010569       1.49094112        0
Ne       3.06035023       2.07524021       1.57304304        0
Ne       2.15837636       2.10412407       1.58377241        0
Ne       1.25640249       2.13300794       1.59450177        0
Ne       3.10656865       3.50065746       1.62115906        0
Ne       2.20459478       3.52954132       1.63188843        0
Ne       1.30262092       3.55842518       1.64261779        0
Ne       3.48052487       1.05814246       1.67660370        0
Ne       2.57855101       1.08702633       1.68733306        0
Ne       1.67657714       1.11591019       1.69806242        0
Ne       0.77460328       1.14479405       1.70879179        0
Ne       3.52674330       2.48355971       1.72471971        0
Ne       2.62476944       2.51244357       1.73544908        0
Ne       1.72279557       2.54132743       1.74617844        0
Ne       0.82082170       2.57021130       1.75690780        0
Ne       2.67098786       3.93786082       1.78356509        0
Ne       1.76901399       3.96674469       1.79429445        0
Ne       3.04494409       1.49534583       1.83900973        0
Ne       2.14297022       1.52422969       1.84973909        0
Ne       1.24099636       1.55311355       1.86046845        0
Ne       3.09116251       2.92076307       1.88712575        0
Ne       2.18918864       2.94964694       1.89785511        0
Ne       1.28721478       2.97853080       1.90858447        0
Ne       3.51133716       1.90366532       1.99068640        0
Ne       2.60936329       1.93254919       2.00141576        0
Ne       1.70738943       1.96143305       2.01214512        0
Ne       0.80541556       1.99031691       2.02287449        0
Ne       3.55755558       3.32908257       2.03880242        0
Ne       2.65558172       3.35796643       2.04953178        0
Ne       1.75360785       3.38685030       2.06026114        0
Ne       0.85163399       3.41573416       2.07099050        0
Ne       3.02953794       0.91545144       2.10497641        0
Ne       2.12756408       0.94433530       2.11570577        0
Ne       1.22559021       0.97321917       2.12643514        0
Ne       3.07575637       2.34086869       2.15309243        0
Ne       2.17378250       2.36975255       2.16382179        0
Ne       1.27180864       2.39863641       2.17455116        0
Ne       3.12197479       3.76628593       2.20120844        0
Ne       2.22000093       3.79516980       2.21193781        0
Ne       1.31802706       3.82405366       2.22266717        0
Ne       3.49593102       1.32377094       2.25665308        0
Ne       2.59395715       1.35265480       2.26738244        0
Ne       1.69198329       1.38153867       2.27811181        0
Ne       0.79000942       1.41042253       2.28884117        0
Ne       3.54214944       2.74918819       2.30476910        0
Ne       2.64017558       2.77807205       2.31549846        0
Ne       1.73820171       2.80695591       2.32622783        0
Ne       0.83622785       2.83583978       2.33695719        0
Ne       3.06035023       1.76097430       2.41905911        0
Ne       2.15837636       1.78985816       2.42978848        0
Ne       1.25640249       1.81874203       2.44051784        0
Ne       3.10656865       3.18639155       2.46717513        0
Ne       2.20459478       3.21527541       2.47790449        0
Ne       1.30262092       3.24415927       2.48863385        0
Ne       2.57855101       0.77276042       2.53334913        0
Ne       1.67657714       0.80164428       2.54407849        0
Ne       3.52674330       2.16929380       2.57073578        0
Ne       2.62476944       2.19817766       2.58146515        0
Ne       1.72279557       2.22706152       2.59219451        0
Ne       0.82082170       2.25594539       2.60292387        0
Ne       3.57296172       3.59471105       2.61885180        0
Ne       2.67098786       3.62359491       2.62958116        0
Ne       1.76901399       3.65247878       2.64031052        0
Ne       0.86704013       3.68136264       2.65103989        0
Ne       3.04494409       1.18107991       2.68502580        0
Ne       2.14297022       1.20996378       2.69575516        0
Ne       1.24099636       1.23884764       2.70648452        0
Ne       3.09116251       2.60649716       2.73314182        0
Ne       2.18918864       2.63538103       2.74387118        0
Ne       1.28721478       2.66426489       2.75460054        0
Ne       3.51133716       1.58939941       2.83670247        0
Ne       2.60936329       1.61828328       2.84743183        0
Ne       1.70738943       1.64716714       2.85816119        0
Ne       0.80541556       1.67605100       2.86889056        0
Ne       3.55755558       3.01481666       2.88481848        0
Ne       2.65558172       3.04370053       2.89554784        0
Ne       1.75360785       3.07258439       2.90627721        0
Ne       0.85163399       3.10146825       2.91700657        0
Ne       2.12756408       0.63006939       2.96172185        0
Ne       3.07575637       2.02660278       2.99910850        0
Ne       2.17378250       2.05548664       3.00983786        0
Ne       1.27180864       2.08437050       3.02056722        0
Ne       3.12197479       3.45202002       3.04722451        0
Ne       2.22000093       3.48090389       3.05795388        0
Ne       1.31802706       3.50978775       3.06868324        0
Ne       2.59395715       1.03838889       3.11339851        0
Ne       1.69198329       1.06727276       3.12412788        0
Ne       3.54214944       2.43492228       3.15078517        0
Ne       2.64017558       2.46380614       3.16151453        0
Ne       1.73820171       2.49269000       3.17224389        0
Ne       0.83622785       2.52157387       3.18297325        0
Ne       3.06035023       1.44670839       3.26507518        0
Ne       2.15837636       1.47559226       3.27580455        0
Ne       1.25640249       1.50447612       3.28653391        0
Ne       3.10656865       2.87212564       3.31319120        0
