37
Lattice="15.3753095493 0.0 0.0 0.0 15.3753095493 0.0 0.0 0.0 15.3753095493" Properties=species:S:1:pos:R:3 pbc="F F F"
Cu      8.82216533       9.31616495      10.01223698 
Cu      6.59480212       5.57116527      10.87901476 
Cu      7.60326428       7.72748286      11.60428671 
Cu      9.91090422       7.23368779      10.85522889 
Cu      5.61181139       7.68286359      10.02680400 
Cu      6.52919106       9.81925895      10.81280365 
Cu      8.94564997       4.97857241      10.29727506 
Cu      7.76685394       7.60741358       3.77102283 
Cu      8.74921825       5.43718599       4.58346193 
Cu      5.34544556       7.99357821       4.41921890 
Cu      6.84920480       9.90312938       4.29653316 
Cu      6.45094932       5.98724187       5.29050847 
Cu      9.72846215       7.61053145       5.32682909 
Cu      8.97642452       9.96831223       5.58262946 
Cu      7.58671466       3.94074897       6.23648447 
Cu     10.57745110       5.38556259       6.25231537 
Cu      7.30547594       8.23492238       6.06628852 
Cu      4.14768249       6.65661990       6.13558333 
Cu     11.02564229       9.90575099       6.95155791 
Cu      5.24725416       4.57261245       6.93341317 
Cu      5.02854623       8.99299795       6.66793882 
Cu     11.59374418       7.53786421       6.96096139 
Cu      8.35427399       6.15174372       6.96226698 
Cu      6.79809361      10.74325182       6.61520455 
Cu      9.23800814       8.34685143       7.63304628 
Cu      6.05677414       6.84641826       7.67083080 
Cu      9.36713813       4.07032468       7.98160934 
Cu      8.92289907      10.75780719       7.98559201 
Cu     10.30301321       6.27728002       8.61683668 
Cu      7.06361531       4.70722187       8.60762827 
Cu      3.78156537       7.65568626       8.37147071 
Cu      6.97337249       9.05317824       8.39374932 
Cu     11.08956244       8.67808074       9.16320693 
Cu      4.71653102       5.47391541       9.19951289 
Cu      4.77464298       9.88618097       8.99091363 
Cu      7.95992300       6.98555643       9.29033173 
Cu      6.77807586      11.43456058       9.00705808 
