37
Lattice="14.8734873614 0.0 0.0 0.0 14.8734873614 0.0 0.0 0.0 14.8734873614" Properties=species:S:1:pos:R:3 pbc="F F F"
Cu      7.52194405       8.74817125      11.00925808 
Cu      7.72518239       6.29626313      10.83626742 
Cu      5.44830671       7.43022828      10.97291757 
Cu     10.13801212       5.53602093       9.44196360 
Cu      9.13935736       7.78117562       9.27617730 
Cu      7.92843805      10.02149986       8.99090881 
Cu      5.55637995       5.48854213       9.39868744 
Cu      5.53599191       9.57811040       9.54070026 
Cu      7.86388579       5.45190592       8.59208513 
Cu      6.76301550       7.58678759       8.87665458 
Cu      4.13782961       7.60317606       8.86399961 
Cu     11.42472687       7.49685471       8.28947319 
Cu     10.31724949       9.81252453       8.56877356 
Cu     11.57568539       5.09169702       7.49182601 
Cu      6.42717933       4.05265271       7.29911891 
Cu      9.51122980       6.47799744       7.13881556 
Cu      8.09619610       8.56757023       6.98153972 
Cu      6.28788682      10.52939594       7.26725695 
Cu      4.69701864       5.90624152       7.11918359 
Cu      7.04929138       6.38566888       6.40139982 
Cu      9.33919659       3.97188909       7.39728997 
Cu      3.89737582       9.90112713       7.69999238 
Cu      5.57949211       8.24686637       6.96012934 
Cu      3.19976088       7.87427447       6.49046595 
Cu      8.81119946      10.87402817       6.76240350 
Cu     10.43697096       8.84018151       6.38626210 
Cu      7.04809264       6.19135642       3.86422929 
Cu      6.88527078       8.46449371       4.82433527 
Cu      7.99878224       4.43215395       5.36025041 
Cu      9.10486305       7.13838795       4.88041685 
Cu      9.01854850       9.62819168       4.59877406 
Cu      6.95941962      10.90159827       4.99476190 
Cu      5.52596452       4.70423797       5.10487473 
Cu      4.87765644       7.07714281       4.86107558 
Cu     11.67372649       6.88730063       5.80588286 
Cu      4.70851530       9.70763472       5.28235868 
Cu     10.35011445       4.93727658       5.30397677 
