37
Lattice="15.3705641254 0.0 0.0 0.0 15.3705641254 0.0 0.0 0.0 15.3705641254" Properties=species:S:1:pos:R:3 pbc="F F F"
Cu      5.85533914       7.71190495      11.39012223 
Cu      8.26349222       7.06273600      11.25445706 
Cu      8.64899225       4.87806527      10.19501740 
Cu      7.86493103       9.42917238      11.76939993 
Cu      5.74108619      10.11039188      10.62203245 
Cu     10.51103121       6.68461706      10.43530522 
Cu      6.49107277       5.22038840      11.52425149 
Cu      8.14360860      10.87178968       9.74373891 
Cu      7.32773589       6.36997423       3.60116420 
Cu      9.67782212       6.40458444       4.18364558 
Cu      8.30491060       8.57275082       4.25557113 
Cu      5.87637058       7.82192001       5.00720498 
Cu      5.61347028       5.37554192       4.99689422 
Cu      8.06959491       4.63996164       5.30979806 
Cu      9.40108739      10.40581195       5.51570703 
Cu     10.27710269       8.16677651       5.86112495 
Cu      8.04705098       6.92703666       6.01821292 
Cu      6.92392680       9.88068850       5.86734767 
Cu     10.14915045       5.74663835       6.50077556 
Cu      4.54109466       9.21148617       6.69663771 
Cu      4.35332751       6.72084748       6.77304771 
Cu      8.56069127       8.96583669       7.46998812 
Cu     10.56516755      10.16378716       7.78853458 
Cu      6.43340984       5.36399252       7.23395118 
Cu      6.40603522       7.84373084       7.43526678 
Cu      8.53447510       4.30169287       7.77609586 
Cu      8.29033626      11.43102479       7.39668155 
Cu     11.01723662       7.61566573       8.13145765 
Cu      8.79442735       6.71915169       8.46828000 
Cu      6.19027422      10.29618104       8.19312351 
Cu      4.76093965       8.17881144       9.14446999 
Cu     10.72070656       5.01957350       8.73174030 
Cu      4.48353844       5.57759035       8.96266312 
Cu      6.48603334       3.93953934       9.30146661 
Cu      7.31019592       8.60219480       9.55052711 
Cu      6.64843112       6.35051945       9.44621119 
Cu      9.68531501       8.91045556       9.83387624 
