37
Lattice="15.130143205 0.0 0.0 0.0 15.130143205 0.0 0.0 0.0 15.130143205" Properties=species:S:1:pos:R:3 pbc="F F F"
Cu      8.55766548       5.41532495      11.05871322 
Cu      6.22743128       6.06768819      11.01868544 
Cu      7.59662829       8.11999148      10.68230995 
Cu      9.92673134       7.31041368      10.28938087 
Cu      8.90868991      10.21058312      10.18204264 
Cu      5.04957450       8.14076161      10.33895940 
Cu      6.38296576      10.20851752      10.06263014 
Cu      6.96147886       4.21769190       9.44579221 
Cu     11.13366547       9.26526926       9.32718379 
Cu      9.86966117       5.15351847       8.95654163 
Cu      7.78559067       6.41239311       8.93852320 
Cu      5.28658880       6.13547383       8.77764377 
Cu      8.93565056       8.55538280       8.44933007 
Cu      6.45209159       8.37336635       8.34655938 
Cu     11.18376490       7.14034196       8.09100874 
Cu      9.97905593      10.91245131       7.98577385 
Cu      3.94637831       8.10456184       8.10552684 
Cu      7.56881827      10.61568390       7.95291622 
Cu      5.06604908      10.32900814       7.89996749 
Cu      8.18795740       4.42955571       7.25738645 
Cu      5.70195011       4.26145123       7.25256700 
Cu      9.13320265       6.65677405       6.86914328 
Cu     10.99702032       5.03864082       6.77080685 
Cu      6.69977305       6.50484939       6.69952333 
Cu     10.41637108       8.93577732       6.53483410 
Cu      4.29316520       6.21361002       6.46063218 
Cu      7.82883288       8.69862535       6.27685524 
Cu      5.30194115       8.53651115       6.08791912 
Cu      8.87800315      10.84719556       5.76643078 
Cu      6.39139098      10.72750982       5.78038641 
Cu     10.68209955       6.91443583       5.05590067 
Cu      8.09685789       6.83321283       4.57837787 
Cu      9.35023428       8.92082242       4.28259904 
Cu      6.82752841       8.95592260       4.07142998 
Cu      6.82743622       4.67271206       5.08636980 
Cu      9.30403167       4.77848762       5.06106459 
Cu      5.63064941       6.75262297       4.41676646 
