37
Lattice="14.9345763885 0.0 0.0 0.0 14.9345763885 0.0 0.0 0.0 14.9345763885" Properties=species:S:1:pos:R:3 pbc="F F F"
Cu      7.77723739       9.10674605      10.72952918 
Cu      7.93325591       6.65013516      10.27588291 
Cu      5.70089789       7.68990794      10.70930253 
Cu      8.06881130       4.21879563       9.68860454 
Cu      9.99115655       8.07990489      10.22880337 
Cu      5.85113768       5.25788549      10.18540290 
Cu      8.15659802      10.78408507       8.92687332 
Cu     10.15462408       5.64240990       9.71371646 
Cu      4.02382702       7.95591686       8.88529275 
Cu      8.30795399       8.35021500       8.41478631 
Cu     10.36851988       9.74758034       8.43600317 
Cu      6.05965643       9.41480012       8.93394489 
Cu      8.45760504       5.91719660       7.90772735 
Cu      9.85455777       3.87724758       8.00572600 
Cu      6.39997684       4.43446521       7.86636665 
Cu      6.23953918       6.93622011       8.39286869 
Cu     10.58673847       7.29346094       7.91035289 
Cu      4.18615528       5.52231737       8.37047818 
Cu      4.94729394       8.88892186       4.75558092 
Cu      7.17092514       7.84326421       4.20504721 
Cu      5.11664228       6.45140257       4.23301704 
Cu     10.60847897       7.21847410       4.41416673 
Cu      8.57382378       5.79928317       4.35164240 
Cu      6.98907174      10.29129442       4.77849966 
Cu      6.51590490       4.41251014       4.37347378 
Cu      9.20781763       9.25696538       4.27662061 
Cu      4.40612391       9.64824728       7.06764555 
Cu      6.62048518       8.62075090       6.58325071 
Cu     10.27304324       5.52481143       6.19720331 
Cu      8.83792046       7.59952837       6.10026482 
Cu      4.50208444       7.20090798       6.54512089 
Cu      8.19040179       4.09961184       6.17831007 
Cu      6.46173516      11.05732880       7.09085977 
Cu     10.91074937       8.98452124       6.12129124 
Cu      6.77361416       6.18682475       6.07822557 
Cu      8.70925725      10.08208697       6.58857147 
Cu      4.73193027       4.75327537       6.05670169 
