37
Lattice="14.7820924914 0.0 0.0 0.0 14.7820924914 0.0 0.0 0.0 14.7820924914" Properties=species:S:1:pos:R:3 pbc="F F F"
Cu      5.86416449       9.38661107      10.66652679 
Cu      8.39387336       9.12768932      10.74869313 
Cu      9.03716739       6.67412564      10.86643715 
Cu      6.66450313       7.10981141      10.48156942 
Cu      7.48709846       4.72781570      10.32288038 
Cu      4.24044558       7.68654436       9.88136469 
Cu     10.35876915       5.54491411       9.10083867 
Cu      7.17845343      10.99548673       9.43897422 
Cu      9.94372300       8.09351418       9.04145702 
Cu      5.12359924       9.51017424       8.28410907 
Cu      6.37367032       4.50041315       8.01160158 
Cu      5.73430209       6.95732081       8.09781445 
Cu      7.38494321       8.66281456       8.63805666 
Cu      3.97091853       5.34772800       7.65915807 
Cu      8.09852918       6.28031572       8.56152846 
Cu      6.33300218       5.86086309       3.96869999 
Cu      5.50030322       8.19456115       3.91565534 
Cu      7.92825207       7.84743559       4.38951228 
Cu      8.77229813       9.88368505       5.58222193 
Cu      6.55127344      10.25799989       4.59629740 
Cu     10.33414104       7.38150661       5.01425165 
Cu      8.75257349       5.50394292       4.36644685 
Cu      7.78571995       3.78660576       5.97990168 
Cu      5.37401743       4.41630746       5.76254421 
Cu      4.76250715       6.80777466       5.75815251 
Cu      4.43660664       9.45532948       5.85219449 
Cu      7.18567446       6.12483803       6.23695250 
Cu      6.56248125       8.47666068       6.31157033 
Cu      8.88814263       7.82765127       6.85768238 
Cu     10.90371810       9.25183210       6.70634116 
Cu      9.12243887      10.25334571       8.07262186 
Cu      6.87068067      10.77632072       7.01087297 
Cu     11.33841164       6.95566847       7.31219729 
Cu      9.58589488       5.41853924       6.66134478 
Cu      8.71842056       3.82871111       8.33773673 
Cu      3.44368085       7.83717566       7.53912435 
Cu      5.05362424       5.32832550       9.91708665 
