38
Lattice="15.7797578061 0.0 0.0 0.0 15.7797578061 0.0 0.0 0.0 15.7797578061" Properties=species:S:1:pos:R:3 pbc="F F F"
Au      7.46375308       7.22075326      12.41101550 
Au      6.02086426       9.53436339      12.26157605 
Au      9.72145577       8.58118379      11.92068639 
Au      8.33112659      10.92075912      11.74131430 
Au      6.86361930       5.00638040      10.90986807 
Au      5.22108417       7.21963723      10.89691549 
Au      5.96500273      11.81574009      10.83167353 
Au      9.06476854       6.43856573      10.28320246 
Au      7.56367986       8.86677821      10.12368764 
Au     11.39037041       7.72311115       9.91600878 
Au     10.18897725      10.17876128       9.78320761 
Au      4.85168857       9.65850109       9.69536776 
Au      4.62412162       4.95829375       9.45271637 
Au      7.88946741      11.44030040       8.99748746 
Au      6.77646404       6.64905072       8.58059292 
Au      6.91587560       3.88116801       8.42349445 
Au      4.11570605       7.39468793       8.30928507 
Au      9.26565522       8.17110295       7.96269678 
Au      5.33301422      11.83751939       8.11971262 
Au     11.93246282       9.31515277       7.84648343 
Au      9.13368375       5.32282995       7.74678414 
Au     11.50692735       6.64860582       7.42128416 
Au      6.60272593       9.35289122       7.43855681 
Au      9.75252783      10.76084979       7.07096752 
Au      3.84729498       9.85195487       7.11420986 
Au      5.16504317       5.22645401       6.81120777 
Au      7.34340344      11.89858980       6.35008011 
Au      7.55045444       4.29379091       5.74721837 
Au      7.61518978       7.01838296       5.84552791 
Au      6.58261743       8.04486789       3.51980382 
Au      9.29849332       7.82618853       3.40390645 
Au      5.58485417       5.59600755       4.19886908 
Au      4.89569083       7.76917195       5.69717070 
Au      5.56270213      10.31944611       5.05582364 
Au      8.05999352       5.52208768       3.36874230 
Au      8.21100899       9.65854021       5.08306639 
Au     10.69381725       8.51900985       5.58949438 
Au     10.02595492       5.85423978       5.21890816 
