38
Lattice="15.5779730138 0.0 0.0 0.0 15.5779730138 0.0 0.0 0.0 15.5779730138" Properties=species:S:1:pos:R:3 pbc="F F F"
Au      6.10720012       7.85928431      12.10970881 
Au      8.07298572       5.90318784      11.78324616 
Au      6.49161362      10.38131949      11.13294435 
Au     10.51297021       6.72092955      11.00275122 
Au      8.49113171       8.53064729      10.90256681 
Au      4.10836475      10.05814943       9.91557994 
Au      3.78873143       7.60151862      10.74938341 
Au      7.57600677       3.78361454      10.14438820 
Au      5.67257148       5.68567758      10.48279858 
Au     10.18900604       4.29345183       9.93006643 
Au      8.75159576      10.95107193       9.57483252 
Au     10.73577838       8.90600583       9.36904918 
Au      6.15489385       8.23442746       9.36645375 
Au      8.29674326       6.31501785       9.07321973 
Au      6.21543449      10.89912003       8.46356907 
Au     11.06916186       6.34308273       8.35309313 
Au      4.38253875       9.07266086       7.36910837 
Au     10.64017262      10.90432471       7.56537977 
Au      4.12895569       6.53274510       8.28051618 
Au      6.07952840       4.61994740       7.98503652 
Au      8.49862466       8.94992256       7.72769803 
Au      8.74549265       3.92417658       7.64235292 
Au     11.41646444       3.86038830       7.42870531 
Au      8.24480629      11.79435848       6.96225540 
Au      5.96837806       6.01920134       3.53488531 
Au      7.63270010       7.97944304       4.34279002 
Au     10.39422290       7.66532017       4.11589174 
Au      4.81220091       8.04510075       4.85362083 
Au      8.70800551       5.66063722       3.46826420 
Au      9.32939975       9.94387102       5.27923599 
Au      6.54861095       9.93062509       5.90157669 
Au      7.18097231       4.60060666       5.45413033 
Au      4.56476456       5.48465850       5.77954066 
Au     11.78924158       5.90024462       5.67998574 
Au     11.20015350       8.44549803       6.60856003 
Au      6.48975508       7.13446329       6.79458139 
Au      9.94134610       4.00324154       5.17526882 
Au      9.15691096       6.45901759       6.26649453 
