38
Lattice="16.0954592496 0.0 0.0 0.0 16.0954592496 0.0 0.0 0.0 16.0954592496" Properties=species:S:1:pos:R:3 pbc="F F F"
Au      5.28755957       7.51599684      11.93133923 
Au      7.88263974       6.45979006      12.00537849 
Au      7.37544825       9.16879823      11.68116015 
Au      5.67021197       4.97724788      11.44646556 
Au      9.95884323       8.29193979      11.84047973 
Au      9.40030718      10.91927662      11.32013599 
Au      7.87107442       4.28237616       9.99857288 
Au     11.49176163       9.75971334      10.13165160 
Au      4.14260500       6.66963015       9.60541217 
Au      5.36916643       9.15000179       9.75483956 
Au      9.76100368       6.26537744      10.01367823 
Au      7.27059779      11.12526420       9.61484622 
Au      6.88233917       6.78309673       9.47836794 
Au      5.27455895       4.27252232       8.96211630 
Au      8.88068284       8.87766259       9.35336675 
Au      9.89619981      11.46137797       8.67274155 
Au     11.33965371       7.78318996       8.31042306 
Au      9.94425413       4.27309029       8.14705354 
Au      5.19231865      11.06013815       7.81321991 
Au      4.02451351       8.63561700       7.45460719 
Au      7.35149827       4.34694655       7.27560604 
Au     12.07094574      10.34157616       7.51369130 
Au      8.86079223       6.68681934       7.34540070 
Au      5.37226159       6.29689523       7.14842060 
Au      6.79934614       8.80641161       7.26311748 
Au      7.77815862      11.50181188       6.92910118 
Au     11.47814945       5.80353316       6.49497545 
Au      9.58834862       9.32705880       6.65680938 
Au      7.75935393       8.86557224       4.53972237 
Au     10.38258108       9.79929520       4.09008076 
Au      7.24087917       6.22196723       5.13777081 
Au     12.05866781       8.36686839       5.69723486 
Au      9.86829573       7.11819841       4.70517130 
Au      8.29640200      11.48550873       4.29669157 
Au      5.81675098      10.64147210       5.24442952 
Au     10.40262213      11.82293693       5.93887049 
Au      5.17747441       8.04714861       5.06991250 
Au      9.36226127       4.53215918       5.48471109 
