38
Lattice="15.7097583741 0.0 0.0 0.0 15.7097583741 0.0 0.0 0.0 15.7097583741" Properties=species:S:1:pos:R:3 pbc="F F F"
Au      6.21465281       8.70564266      12.33744296 
Au      9.00339309       8.71424262      12.08528632 
Au      7.41899237      10.96043820      11.70252007 
Au      6.94028288       6.32067874      11.34298439 
Au      9.44776872       6.58497213      10.42537613 
Au      5.12214897      10.33727339      10.31380642 
Au      7.72206452       4.40902616       9.60613588 
Au      4.87916753       7.63990790      10.12625789 
Au      9.55992405      10.60936419      10.12584889 
Au     11.38523220       8.61706640      10.51101012 
Au      7.50143486       8.72748839       9.86279042 
Au      5.08047006       4.90954008       9.84041643 
Au      7.16845300      11.54431035       9.03067613 
Au      3.41077084       9.18720153       8.41236913 
Au     11.74890024       6.36617725       8.99884028 
Au      6.63282605       6.51947404       8.16486447 
Au      9.35117640       5.62436281       7.80705657 
Au      9.88479198       8.39883743       8.30417988 
Au      4.71807088       4.74554761       7.18180130 
Au      4.69147361      11.62986830       7.92514429 
Au      6.09242338       9.27430043       7.57215393 
Au      3.09992899       6.34121417       8.63253399 
Au     11.25213790      10.88379635       8.11757645 
Au     10.24377382       7.69379012       3.96448762 
Au      7.74249380       7.26570984       3.37231541 
Au      8.48692099       9.84019828       4.35316110 
Au     10.89230009       9.50066032       5.83444763 
Au      9.03725308       5.44418732       5.05487038 
Au      5.98361428       8.76617668       4.74323035 
Au      6.39835243      11.28048073       5.75981613 
Au      6.32228219       5.98284530       5.29478836 
Au      8.29569380       7.82093319       6.13127660 
Au      8.68829384      10.57458372       7.04281988 
Au     11.25491863       6.82766292       6.30716541 
Au      7.32884392       4.07989008       6.91899982 
Au      3.92471446      10.08753187       5.89829440 
Au     12.60982938       8.63507827       7.92730216 
Au      4.30441220       7.40058126       6.51084326 
