38
Lattice="15.9613698516 0.0 0.0 0.0 15.9613698516 0.0 0.0 0.0 15.9613698516" Properties=species:S:1:pos:R:3 pbc="F F F"
Au      9.61467026       8.58560813      12.42358845 
Au      7.93511072       6.63175728      11.47875410 
Au      6.93417364       9.02143209      12.41295447 
Au      7.27081706      11.41199323      11.15691127 
Au      5.17945537       7.05277778      11.50275701 
Au      5.38323877       9.51919755      10.24844160 
Au     10.63424775       6.19495433      11.46431303 
Au     10.00113952      10.97069120      11.17738810 
Au      6.17988568       4.60969985      11.76226482 
Au     11.26051327       8.60056549      10.28076441 
Au      7.99912199       6.74033295       3.53778140 
Au      8.40099852       9.39938467       4.33930809 
Au      9.06425629       4.67234252       4.88870745 
Au      6.33145351       5.09380996       4.86445306 
Au      9.89684184       7.32026250       5.33545772 
Au      6.32425160       7.87174241       5.28869612 
Au     10.62268678       9.94823979       5.73815952 
Au      6.43277794      10.60326971       5.70656311 
Au      8.73763422      11.65468508       6.58870176 
Au      7.86095043       6.07166814       6.87481406 
Au     10.77681660       5.35030424       7.03363540 
Au      8.29014397       8.91992950       7.11775197 
Au      4.89641477       6.26034421       7.00032567 
Au     11.43662485       8.06359988       7.50478090 
Au      5.11569097       9.03532599       7.47811684 
Au      8.84792512       3.47685061       7.32081254 
Au      6.16538551       3.88655359       7.29721787 
Au     10.35956522      10.42813252       8.44000192 
Au      6.79317175      11.01171281       8.41832931 
Au      9.46579942       6.83501716       9.03082111 
Au      6.54392367       7.24431607       9.05909034 
Au     12.20262740       6.17616336       9.28023149 
Au      3.75874246       7.49143161       9.23081584 
Au     10.34478494       4.24723507       9.51850809 
Au      8.85902951      12.48451924       9.26657961 
Au      7.63928520       4.64071259       9.49753534 
Au      4.87809808       5.03191318       9.49125471 
Au      8.32638713       9.19946219       9.99466246 
