38
Lattice="15.4365945307 0.0 0.0 0.0 15.4365945307 0.0 0.0 0.0 15.4365945307" Properties=species:S:1:pos:R:3 pbc="F F F"
Au      9.68188055       5.73525409      11.75263923 
Au      7.43358707       7.24902429      11.59382245 
Au      5.17823844       8.74266335      11.45650264 
Au      7.58257398       9.95776981      10.77306637 
Au      9.85699633       8.44261186      10.92195701 
Au      5.15688654       6.19792023      10.48625610 
Au      7.46368772       4.61684992      10.64948083 
Au     10.13800635       4.21889633       9.53605356 
Au      9.97846944      11.00428718       9.85043081 
Au     11.58684820       6.50556758      10.07334271 
Au      5.16948607      10.51852494       9.39084987 
Au      3.71602824       8.19441002       9.25971718 
Au      6.50793558       8.11062368       9.02067209 
Au     11.72056629       9.08681535       9.05128572 
Au      8.80932958       6.51300880       9.16687297 
Au      7.62535957      11.56856206       8.54348247 
Au      6.37285949       5.35332544       8.18161204 
Au      9.08567810       9.10021997       8.09686389 
Au      7.94257556       3.14920131       8.43995273 
Au      7.59168565       7.85082688       3.78672570 
Au      6.91321674      10.47112952       3.68395530 
Au      8.40225438       5.30686715       4.32762901 
Au      5.82349209       5.99113303       4.79703228 
Au      8.93947934       9.76902762       5.31137331 
Au      5.06800459       8.65905511       4.59889167 
Au      7.49671908      12.11825070       5.80359785 
Au      4.81037247      11.34915409       4.98055881 
Au     10.07387192       7.29587251       5.01314172 
Au      9.94896625      11.54877819       7.15635912 
Au      7.71616536       7.14253291       6.46866503 
Au      6.94321794       3.85616802       6.02323405 
Au      9.31667393       4.87749428       6.88830996 
Au      6.49742527       9.74674186       6.69315890 
Au      4.81612499       7.30748887       6.94788849 
Au     11.38069413       9.36935227       6.39588548 
Au      5.26056413      12.28739323       7.38321598 
Au      3.81147047       9.87785294       7.05218485 
Au     11.01975858       6.92763637       7.50163368 
