38
Lattice="15.3449923156 0.0 0.0 0.0 15.3449923156 0.0 0.0 0.0 15.3449923156" Properties=species:S:1:pos:R:3 pbc="F F F"
Au      6.94489380       9.35231719      11.72091431 
Au      8.48191426       7.08787570      11.90915425 
Au      4.41182382       9.17206673      10.89383716 
Au      5.93529275       6.89060080      11.01072222 
Au      7.62374841       4.65675912      11.00691673 
Au      5.95254506      11.27281728      10.05364513 
Au      9.09699661       9.11278480      10.11306664 
Au     10.70693888       6.87485554      10.42586830 
Au      4.14059909       7.32829992       8.88399400 
Au      6.49774235       8.78764588       8.95538531 
Au      4.12245124      10.12290130       8.37690035 
Au      8.21062789       6.56524185       9.15326127 
Au      9.89414313       4.44620653       9.48668864 
Au      5.77165106       5.11099926       8.92506741 
Au      8.10559889      11.04559310       8.38529262 
Au     11.39888518       8.92836823       8.74175661 
Au      7.63500670       3.18810439       8.74976500 
Au      5.77457073      12.13210051       7.41598668 
Au      8.93069893       8.55420752       7.27081741 
Au      7.41962239      10.58099008       3.43583807 
Au      7.35719470       7.98846810       4.24272888 
Au      5.00239880       9.42980334       3.95352728 
Au      9.53982632       9.62218850       4.76601952 
Au      7.43893266       5.28256258       4.54165124 
Au      4.09682583       8.26758847       6.30171985 
Au      5.05207284       6.56174333       4.43183970 
Au      5.75178004      12.15688792       4.69218426 
Au      9.63397751       6.81124630       5.22396652 
Au      8.22853613      11.84924522       5.77405032 
Au     11.58667617       8.50264103       6.11474546 
Au      6.48773181       9.77517737       6.23707593 
Au      3.75831615      10.93656706       5.85727106 
Au     10.47954735      10.83196001       7.03154647 
Au      6.18704198       3.95109189       6.49902512 
Au      8.71136788       4.86597369       6.95009321 
Au      4.07517768       5.57284561       6.76810382 
Au     10.80653299       6.44056728       7.75198344 
Au      6.58138022       6.82455829       6.75855185 
