38
Lattice="16.1112652033 0.0 0.0 0.0 16.1112652033 0.0 0.0 0.0 16.1112652033" Properties=species:S:1:pos:R:3 pbc="F F F"
Au      9.73768783       7.91257275      12.02869863 
Au      7.03400993       8.52728343      11.21898480 
Au     11.57882234       9.85822252      11.66252627 
Au      9.02690641      10.40916187      10.97205768 
Au     10.59563891       5.53724906      11.07157223 
Au      7.97120071       5.99894950      10.88447906 
Au     10.92252757      12.29651599      10.61623353 
Au      4.49336550       9.08326525      10.17380147 
Au      6.43904983      10.98450306      10.02351946 
Au      5.42419983       6.57917925       9.89268101 
Au      6.34001652       4.08846798       9.75207062 
Au      8.43293590      12.87929368       9.74744951 
Au     11.92653863       7.67503177      10.10182888 
Au      9.02176697       3.82287116       9.50850986 
Au      9.35145275       8.02221946       9.35663662 
Au     11.28752384      10.16541105       8.99679183 
Au      6.69389624       8.57961912       8.45960137 
Au     10.75525580       5.69863945       8.40967018 
Au      8.62735174      10.61518521       8.19450127 
Au      7.93955264       5.92238025       8.04192474 
Au     10.46481991      12.65819727       7.97964463 
Au      4.71981244      10.49211295       7.90191718 
Au      4.18472657       7.80845726       7.74588799 
Au      6.60993993      12.45957904       7.72920725 
Au      7.08443561       3.23197152       7.38972482 
Au      5.35276127       5.33423666       7.41146646 
Au     11.53152146       8.03541866       7.26688325 
Au      9.60367520       3.73330438       6.86698530 
Au      8.85783204       8.32956367       6.56245608 
Au      6.72573896      10.21480350       6.09392162 
Au      8.64228655      12.24507685       5.96080391 
Au      6.25744413       7.45444715       5.92430736 
Au     10.87079697       8.38063758       4.56461363 
Au      8.34584682       7.35790933       4.08256657 
Au      8.78702025      10.05095607       4.34280309 
Au      7.58023377       5.10051218       5.46571290 
Au     10.17800414       6.05359618       5.70169653 
Au     10.73909037      10.51234489       6.25674812 
