38
Lattice="16.1600369264 0.0 0.0 0.0 16.1600369264 0.0 0.0 0.0 16.1600369264" Properties=species:S:1:pos:R:3 pbc="F F F"
Au      9.32945576       7.90556107      11.75507822 
Au      7.96876201      10.29108043      11.73193267 
Au     10.79605855      10.30420810      11.72650552 
Au      6.57455545       7.83283202      11.58491642 
Au      7.96400369       5.50839915      11.70029016 
Au      5.20275393      10.15975941      11.43220533 
Au     10.50897767       5.59555390      10.85951884 
Au     11.98315416       7.91532664      11.38313397 
Au      5.94254792       5.78906616       9.84104265 
Au      9.35703813      12.11316076      10.29561280 
Au      6.59853496      12.02664034      10.08993567 
Au      4.43086563       8.08291349       9.74862003 
Au      8.01692243       4.03324094       9.46290050 
Au     12.36229742       9.80625023       9.50228510 
Au      8.55867277       6.80629754       9.19881702 
Au      6.88423908       9.38325228       9.30032832 
Au      9.67505122       9.46402929       9.40410027 
Au      4.47857249      10.70276624       8.89899840 
Au     11.38879471       7.25253514       8.85939759 
Au      7.54429000       9.71759252       4.40495870 
Au     10.02292489       8.62007956       4.55580854 
Au      5.31847014       8.14065004       4.98787472 
Au      7.78087941       7.00969589       4.96263661 
Au      9.73978949      11.09628242       5.63441500 
Au      5.49183756       5.50886719       5.65618898 
Au      7.32676297      12.16898677       5.39348481 
Au     10.15432720       6.70211325       6.45831818 
Au      5.99193319      10.21148721       6.67370224 
Au     11.32586601       9.22690588       6.94321519 
Au      7.95647844       5.11029139       6.94656630 
Au      8.52667512       8.91411565       6.90364560 
Au      3.93931499       6.02031507       7.88277479 
Au      3.79773950       8.64245411       7.17992074 
Au     10.89566179      11.62989256       8.11445832 
Au      6.27587752       7.34448775       7.49194052 
Au     10.33684571       4.74542598       8.32216139 
Au      8.15380323      11.56662398       7.88712806 
Au      5.70779651       3.99105016       7.86988671 
