38
Lattice="15.9422945574 0.0 0.0 0.0 15.9422945574 0.0 0.0 0.0 15.9422945574" Properties=species:S:1:pos:R:3 pbc="F F F"
Au      8.04571184       5.22601734      12.13949492 
Au      9.93227553       7.21922059      12.37673595 
Au      5.44366662       6.02123044      12.06302244 
Au      7.36346813       8.01482068      12.25888890 
Au      9.40726380       9.93288399      12.23973747 
Au      7.07585942      10.33663189      10.79011997 
Au      9.81179160       5.66641350       9.99184768 
Au      4.75473158      10.64555438       9.23941257 
Au      5.05884120       8.37190135      10.70346068 
Au      6.14669696       4.02583388      10.35268183 
Au     11.88097568       7.27745694      10.59727174 
Au      7.14173943       6.52283269       9.89140903 
Au      9.42487616      11.42845551       9.85492234 
Au      9.22261494       8.46581043      10.00370540 
Au      8.66781726       3.29830035      10.38840202 
Au      4.41901655       5.98166515       9.54284453 
Au      7.08290173      11.68303847       8.31045680 
Au      6.72703158       8.85327252       8.46103405 
Au     11.55413030       9.90464465      10.50827754 
Au      6.51060538       7.12996934       3.56555860 
Au      9.13259161       6.99628730       3.71343184 
Au      6.10392328       9.80130886       3.92811119 
Au      8.84556408       9.65734237       3.73371157 
Au      7.78951047       5.57790278       5.50506364 
Au      4.74617551       7.93560579       5.41536619 
Au      7.50869617       8.36676617       5.76926526 
Au     10.41964127       8.33318854       5.61632595 
Au      7.73648073      11.32069082       5.59346741 
Au      8.99673718       6.91196979       7.61853569 
Au     10.49851973      11.04741709       5.44697605 
Au      5.34363554      10.32058467       6.55211606 
Au      5.96752646       6.36831885       7.30823522 
Au      7.82990483       4.47677455       8.14997885 
Au      4.06131888       8.27810413       8.06123998 
Au     11.54455290      11.06909851       8.02848369 
Au      9.45041815      12.64399420       7.35386985 
Au      9.14484247       9.87647522       7.54144694 
Au     11.39710604       8.33504813       8.19800299 
