38
Lattice="15.6221366904 0.0 0.0 0.0 15.6221366904 0.0 0.0 0.0 15.6221366904" Properties=species:S:1:pos:R:3 pbc="F F F"
Au      6.44664258       7.86440121      11.96542511 
Au      8.28520797       5.96864481      11.43069256 
Au      4.21038316       9.30378019      11.22496804 
Au      4.38932763       6.66447958      10.75255779 
Au      8.88814322       8.57546195      10.67386630 
Au      6.10751556       4.64386009      10.37708645 
Au      6.60848866      10.04658101      10.38288543 
Au     10.27697934       6.53921315       9.58204596 
Au      6.90597763       7.08903317       9.33296731 
Au     11.12133172       9.09673793       8.91851982 
Au      4.43072551      11.10521898       9.09757338 
Au      8.47714810       4.57322509       9.08167459 
Au      8.95155130      10.80396967       9.06116543 
Au      4.56969454       8.45908465       8.67527327 
Au      4.76241311       5.71505570       8.17907183 
Au      6.69742557      10.11105082       7.65852228 
Au      8.82850031       8.17496078       7.71322395 
Au      6.22530020       3.40595104       7.90360245 
Au     12.31121797       6.91142817       7.91899003 
Au      6.67607426       6.00031409       3.91491187 
Au      6.90379587       8.72556266       3.65671158 
Au      4.45209214       7.67401066       4.04344280 
Au      8.95913208       4.58804468       4.59803228 
Au      4.65201880       5.33504484       5.51996072 
Au      6.25210845      10.98311384       5.00272649 
Au      8.86822875       7.25606010       4.96698757 
Au      4.16501081      10.07771130       6.45504829 
Au      8.67769704       9.90253487       5.47936417 
Au      6.06547456       7.92697526       6.15696419 
Au      6.58160108       3.46185361       5.17927860 
Au      3.31091872       7.47034622       6.45899571 
Au      8.72779130       3.15274874       6.81199148 
Au     10.12188244       5.68856636       6.92833199 
Au     11.06352866       8.42960434       6.17601256 
Au      8.15280243      12.22379353       6.77828460 
Au     10.60617261      10.97080692       7.00488536 
Au      7.34122570       5.61001941       6.74814111 
Au      5.45356577      12.46938795       7.05759422 
