38
Lattice="15.3681309671 0.0 0.0 0.0 15.3681309671 0.0 0.0 0.0 15.3681309671" Properties=species:S:1:pos:R:3 pbc="F F F"
Au      6.70387593       7.08861958      11.64590650 
Au      7.81489185       9.52997327      11.25513414 
Au      5.26085264      10.03563480      10.63158117 
Au      8.23577632       4.71995128      10.86987450 
Au      9.10714486       7.30860085      10.37487032 
Au      4.29803461       7.54436419      10.46290774 
Au     10.76537570       5.20013929       9.97008507 
Au      9.71084481       9.74755255       9.26202199 
Au      5.80734583       5.39476456       9.72543870 
Au      7.23499323      10.93807777       8.97150540 
Au      6.67955712       8.08926857       9.05711726 
Au      4.73904085      11.83701531       8.57053552 
Au      7.02376532       3.03725998       9.09152350 
Au      9.62223920       3.12874544       8.85182362 
Au     11.15788287       7.41652334       8.50820639 
Au      4.16844560       9.23489234       8.26320617 
Au      8.22695950       5.64213628       8.28610016 
Au      4.03422313       6.50216419       7.93690229 
Au     11.38137071       9.70814652       7.10472704 
Au      9.01041406      11.07407012       6.88793333 
Au      8.88865314       8.22058253       7.08794428 
Au     10.67601878       5.01502483       7.20282901 
Au      6.52353010      12.33087099       6.61786957 
Au      5.58219784       4.24244904       7.19495472 
Au      6.46135830       9.60779622       6.60038686 
Au      6.34679259       6.80637449       6.43082904 
Au      8.18618889       3.52709045       6.56721884 
Au      4.18580568      11.00574260       6.06930525 
Au     11.16019412       7.33227595       5.77291022 
Au      3.98676025       8.23107343       5.71488180 
Au      5.44352171       7.01305453       3.72222447 
Au      7.72850220       8.27131006       4.41148378 
Au      7.70031121      11.04258169       4.51717615 
Au     10.02352691       9.60480227       4.80863737 
Au      6.51851486       4.68543475       4.66178167 
Au      4.00789606       5.49992347       5.38737293 
Au      8.83745939       5.92894214       5.39690491 
Au      5.41515279       9.74299647       3.98335099 
