38
Lattice="15.3529885729 0.0 0.0 0.0 15.3529885729 0.0 0.0 0.0 15.3529885729" Properties=species:S:1:pos:R:3 pbc="F F F"
Au      9.19809459       6.81275136      11.71834502 
Au      8.33917575       9.60254922      11.75540578 
Au      6.64252904       7.52849963      11.17828035 
Au      5.84203409      10.14033030      10.99881764 
Au      9.92119674       4.46946280      10.58643032 
Au     10.36696149       8.74961935      10.26551365 
Au      7.26019779       4.95847166      10.63692643 
Au      7.83670598      11.61185625       9.88922171 
Au      4.71241984       5.83935544      10.40841786 
Au      7.72188174       9.07945530       9.07883432 
Au      4.87474343       8.24037904       9.17019552 
Au     11.57944211       6.38546944       9.60479015 
Au     10.04648509      10.74092389       8.43565318 
Au     11.05124197       4.06512512       8.21220453 
Au      8.93510123       6.59299034       9.00275671 
Au      5.49254014      10.85418840       8.43902864 
Au     11.76196362       8.70293562       7.98752929 
Au      8.36727558       3.96371701       8.30156432 
Au      6.16802511       5.84717382       8.20791921 
Au      9.80913842       9.15425920       3.59758280 
Au      7.43990861       7.74020222       4.13786454 
Au     10.01892330       6.57436013       4.33398923 
Au      7.70380776      10.38557445       4.57319747 
Au      4.65292794       8.45799506       4.70065187 
Au      7.88660002       4.96490456       3.89134918 
Au     11.70743026       8.58696508       5.32975099 
Au      5.35462084      10.93410230       5.68605284 
Au      9.68139423       4.06477194       5.81019015 
Au      9.21448265       8.70182419       6.55574390 
Au     10.24817674      10.94727831       5.64477835 
Au      3.59102496       9.48649312       7.02060723 
Au     10.93946170       6.37261365       6.88676971 
Au      3.95159161       6.88057480       6.96674882 
Au      6.34130659       8.51183038       6.73538860 
Au      5.62390298       5.93415935       5.13392514 
Au      7.79740701      11.23577821       7.09750164 
Au      8.12063274       6.19282784       6.35899072 
Au      6.91087673       3.74113232       6.07056966 
