55
Lattice="36.84202674000004 0.0 0.0 0.0 36.84202674000004 0.0 0.0 0.0 36.84202674000004" Properties=species:S:1:pos:R:3:tags:I:1 pbc="F F F"
Cu      18.42101337      18.42101337      18.42101337        1
Cu      22.63152006      18.42101337      15.81877713        2
Cu      22.63152006      18.42101337      21.02324961        2
Cu      14.21050669      18.42101337      15.81877713        2
Cu      14.21050669      18.42101337      21.02324961        2
Cu      15.81877713      22.63152006      18.42101337        2
Cu      21.02324961      22.63152006      18.42101337        2
Cu      15.81877713      14.21050669      18.42101337        2
Cu      21.02324961      14.21050669      18.42101337        2
Cu      18.42101337      15.81877713      22.63152006        2
Cu      18.42101337      21.02324961      22.63152006        2
Cu      18.42101337      15.81877713      14.21050669        2
Cu      18.42101337      21.02324961      14.21050669        2
Cu      26.84202674      18.42101337      13.21654089        3
Cu      26.84202674      18.42101337      18.42101337        3
Cu      26.84202674      18.42101337      23.62548585        3
Cu      10.00000000      18.42101337      13.21654089        3
Cu      10.00000000      18.42101337      18.42101337        3
Cu      10.00000000      18.42101337      23.62548585        3
Cu      13.21654089      26.84202674      18.42101337        3
Cu      18.42101337      26.84202674      18.42101337        3
Cu      23.62548585      26.84202674      18.42101337        3
Cu      13.21654089      10.00000000      18.42101337        3
Cu      18.42101337      10.00000000      18.42101337        3
Cu      23.62548585      10.00000000      18.42101337        3
Cu      18.42101337      13.21654089      26.84202674        3
Cu      18.42101337      18.42101337      26.84202674        3
Cu      18.42101337      23.62548585      26.84202674        3
Cu      18.42101337      13.21654089      10.00000000        3
Cu      18.42101337      18.42101337      10.00000000        3
Cu      18.42101337      23.62548585      10.00000000        3
Cu      22.63152006      15.81877713      25.23375630        3
Cu      22.63152006      21.02324961      25.23375630        3
Cu      22.63152006      15.81877713      11.60827044        3
Cu      22.63152006      21.02324961      11.60827044        3
Cu      14.21050669      15.81877713      25.23375630        3
Cu      14.21050669      21.02324961      25.23375630        3
Cu      14.21050669      15.81877713      11.60827044        3
Cu      14.21050669      21.02324961      11.60827044        3
Cu      25.23375630      22.63152006      15.81877713        3
Cu      25.23375630      22.63152006      21.02324961        3
Cu      11.60827044      22.63152006      15.81877713        3
Cu      11.60827044      22.63152006      21.02324961        3
Cu      25.23375630      14.21050669      15.81877713        3
Cu      25.23375630      14.21050669      21.02324961        3
Cu      11.60827044      14.21050669      15.81877713        3
Cu      11.60827044      14.21050669      21.02324961        3
Cu      15.81877713      25.23375630      22.63152006        3
Cu      21.02324961      25.23375630      22.63152006        3
Cu      15.81877713      11.60827044      22.63152006        3
Cu      21.02324961      11.60827044      22.63152006        3
Cu      15.81877713      25.23375630      14.21050669        3
Cu      21.02324961      25.23375630      14.21050669        3
Cu      15.81877713      11.60827044      14.21050669        3
Cu      21.02324961      11.60827044      14.21050669        3
