55
Lattice="1000.0 0.0 0.0 0.0 1000.0 0.0 0.0 0.0 1000.0" Properties=species:S:1:pos:R:3:tags:I:1 pbc="F F F"
Cu       8.42101337       8.42101337       8.42101337        1
Cu      12.63152006       8.42101337       5.81877713        2
Cu      12.63152006       8.42101337      11.02324961        2
Cu       4.21050669       8.42101337       5.81877713        2
Cu       4.21050669       8.42101337      11.02324961        2
Cu       5.81877713      12.63152006       8.42101337        2
Cu      11.02324961      12.63152006       8.42101337        2
Cu       5.81877713       4.21050669       8.42101337        2
Cu      11.02324961       4.21050669       8.42101337        2
Cu       8.42101337       5.81877713      12.63152006        2
Cu       8.42101337      11.02324961      12.63152006        2
Cu       8.42101337       5.81877713       4.21050669        2
Cu       8.42101337      11.02324961       4.21050669        2
Cu      16.84202674       8.42101337       3.21654089        3
Cu      16.84202674       8.42101337       8.42101337        3
Cu      16.84202674       8.42101337      13.62548585        3
Cu       0.00000000       8.42101337       3.21654089        3
Cu       0.00000000       8.42101337       8.42101337        3
Cu       0.00000000       8.42101337      13.62548585        3
Cu       3.21654089      16.84202674       8.42101337        3
Cu       8.42101337      16.84202674       8.42101337        3
Cu      13.62548585      16.84202674       8.42101337        3
Cu       3.21654089       0.00000000       8.42101337        3
Cu       8.42101337       0.00000000       8.42101337        3
Cu      13.62548585       0.00000000       8.42101337        3
Cu       8.42101337       3.21654089      16.84202674        3
Cu       8.42101337       8.42101337      16.84202674        3
Cu       8.42101337      13.62548585      16.84202674        3
Cu       8.42101337       3.21654089       0.00000000        3
Cu       8.42101337       8.42101337       0.00000000        3
Cu       8.42101337      13.62548585       0.00000000        3
Cu      12.63152006       5.81877713      15.23375630        3
Cu      12.63152006      11.02324961      15.23375630        3
Cu      12.63152006       5.81877713       1.60827044        3
Cu      12.63152006      11.02324961       1.60827044        3
Cu       4.21050669       5.81877713      15.23375630        3
Cu       4.21050669      11.02324961      15.23375630        3
Cu       4.21050669       5.81877713       1.60827044        3
Cu       4.21050669      11.02324961       1.60827044        3
Cu      15.23375630      12.63152006       5.81877713        3
Cu      15.23375630      12.63152006      11.02324961        3
Cu       1.60827044      12.63152006       5.81877713        3
Cu       1.60827044      12.63152006      11.02324961        3
Cu      15.23375630       4.21050669       5.81877713        3
Cu      15.23375630       4.21050669      11.02324961        3
Cu       1.60827044       4.21050669       5.81877713        3
Cu       1.60827044       4.21050669      11.02324961        3
Cu       5.81877713      15.23375630      12.63152006        3
Cu      11.02324961      15.23375630      12.63152006        3
Cu       5.81877713       1.60827044      12.63152006        3
Cu      11.02324961       1.60827044      12.63152006        3
Cu       5.81877713      15.23375630       4.21050669        3
Cu      11.02324961      15.23375630       4.21050669        3
Cu       5.81877713       1.60827044       4.21050669        3
Cu      11.02324961       1.60827044       4.21050669        3
