55
Lattice="1000.0 0.0 0.0 0.0 1000.0 0.0 0.0 0.0 1000.0" Properties=species:S:1:pos:R:3 pbc="F F F"
Cu       0.00000000       3.50000000       3.50000000
Cu       3.50000000       0.00000000       3.50000000
Cu       3.50000000       3.50000000       0.00000000
Cu       0.00000000       0.00000000       7.00000000
Cu       0.00000000       3.50000000      10.50000000
Cu       3.50000000       0.00000000      10.50000000
Cu       3.50000000       3.50000000       7.00000000
Cu       3.50000000       3.50000000      14.00000000
Cu       0.00000000       7.00000000       0.00000000
Cu       0.00000000      10.50000000       3.50000000
Cu       3.50000000       7.00000000       3.50000000
Cu       3.50000000      10.50000000       0.00000000
Cu       0.00000000       7.00000000       7.00000000
Cu       0.00000000      10.50000000      10.50000000
Cu       3.50000000       7.00000000      10.50000000
Cu       3.50000000      10.50000000       7.00000000
Cu       0.00000000       7.00000000      14.00000000
Cu       3.50000000      10.50000000      14.00000000
Cu       3.50000000      14.00000000       3.50000000
Cu       0.00000000      14.00000000       7.00000000
Cu       3.50000000      14.00000000      10.50000000
Cu       7.00000000       0.00000000       0.00000000
Cu       7.00000000       3.50000000       3.50000000
Cu      10.50000000       0.00000000       3.50000000
Cu      10.50000000       3.50000000       0.00000000
Cu       7.00000000       0.00000000       7.00000000
Cu       7.00000000       3.50000000      10.50000000
Cu      10.50000000       0.00000000      10.50000000
Cu      10.50000000       3.50000000       7.00000000
Cu       7.00000000       0.00000000      14.00000000
Cu      10.50000000       3.50000000      14.00000000
Cu       7.00000000       7.00000000       0.00000000
Cu       7.00000000      10.50000000       3.50000000
Cu      10.50000000       7.00000000       3.50000000
Cu      10.50000000      10.50000000       0.00000000
Cu       7.00000000       7.00000000       7.00000000
Cu       7.00000000      10.50000000      10.50000000
Cu      10.50000000       7.00000000      10.50000000
Cu      10.50000000      10.50000000       7.00000000
Cu       7.00000000       7.00000000      14.00000000
Cu      10.50000000      10.50000000      14.00000000
Cu       7.00000000      14.00000000       0.00000000
Cu      10.50000000      14.00000000       3.50000000
Cu       7.00000000      14.00000000       7.00000000
Cu      10.50000000      14.00000000      10.50000000
Cu       7.00000000      14.00000000      14.00000000
Cu      14.00000000       3.50000000       3.50000000
Cu      14.00000000       0.00000000       7.00000000
Cu      14.00000000       3.50000000      10.50000000
Cu      14.00000000       7.00000000       0.00000000
Cu      14.00000000      10.50000000       3.50000000
Cu      14.00000000       7.00000000       7.00000000
Cu      14.00000000      10.50000000      10.50000000
Cu      14.00000000       7.00000000      14.00000000
Cu      14.00000000      14.00000000       7.00000000
