147
Lattice="1000.0 0.0 0.0 0.0 1000.0 0.0 0.0 0.0 1000.0" Properties=species:S:1:pos:R:3:tags:I:1 pbc="F F F"
Cu      16.69660142      18.00422804      19.09313168        1
Cu      20.07359763      16.56465312      18.34515803        2
Cu      18.36715012      16.20007948      18.61129854        2
Cu      16.01663400      16.24925273      16.42130643        2
Cu      15.95062857      18.00506699      20.16895089        2
Cu      17.12576121      20.65842788      18.20762451        2
Cu      18.93848948      18.11164405      17.58622488        2
Cu      14.28535010      15.06982859      18.00353361        2
Cu      17.19856393      14.89802456      17.36212864        2
Cu      16.25750086      15.73768014      20.30855619        2
Cu      17.40386176      18.34655989      19.06483852        2
Cu      15.84412065      16.18078947      15.65543028        2
Cu      17.09243714      18.52840218      16.15055056        2
Cu      21.36652565      17.26217971      15.47104406        3
Cu      19.72571312      16.91496734      18.31588608        3
Cu      23.05706202      15.68739640      21.20779910        3
Cu      13.30420258      15.27773950      15.96740202        3
Cu      12.00473934      17.81949193      19.29837115        3
Cu      12.30309000      15.53589636      21.60812763        3
Cu      15.74740224      21.96429165      18.75059732        3
Cu      16.08723772      21.51002395      18.42773633        3
Cu      19.61386539      21.93934482      19.21272217        3
Cu      13.90037140      12.33237136      19.43074850        3
Cu      17.23269000      14.10902546      19.35601708        3
Cu      20.91121623      12.14038822      16.66645173        3
Cu      17.43075638      13.21458458      22.27478307        3
Cu      16.99340052      15.43324428      23.60298221        3
Cu      16.20801680      20.98696096      22.19916427        3
Cu      16.24388425      15.52047377      14.60624730        3
Cu      16.84928991      17.73463686      12.80979229        3
Cu      15.68419582      19.89533056      13.20982087        3
Cu      19.28779516      16.31495856      21.55477278        3
Cu      19.77308663      18.09132017      20.90409878        3
Cu      19.02756042      16.04063432      13.41286995        3
Cu      20.39594720      18.71834830      15.70447943        3
Cu      14.95965940      16.68172454      22.26006901        3
Cu      15.66003545      19.59683898      23.18469037        3
Cu      15.05228005      14.22481048      14.32853115        3
Cu      14.54958647      18.81352025      15.07636513        3
Cu      21.52911481      17.58437559      17.28895753        3
Cu      20.76983646      18.71256617      18.84830138        3
Cu      14.22798327      19.23841105      17.14105614        3
Cu      14.60212507      19.04039557      20.79915397        3
Cu      20.81464476      15.00314301      16.05603411        3
Cu      20.80038462      15.44103755      19.84205628        3
Cu      13.39782692      15.14906138      16.21941681        3
Cu      14.50367488      15.24015883      18.72314688        3
Cu      16.19981811      22.04320101      21.40536735        3
Cu      19.64850090      21.81337194      19.13376933        3
Cu      16.52261451      14.97143282      21.28869782        3
Cu      17.25002123      14.25971146      20.05464396        3
Cu      14.69894039      20.51541452      15.32895470        3
Cu      19.95937372      21.41053774      15.57380997        3
Cu      14.96980857      14.09918312      16.32879709        3
Cu      17.78969431      13.61728697      16.42457616        3
Cu      23.53364350      16.44366096      14.67354918        4
Cu      24.40250649      16.47079555      16.18430905        4
Cu      24.78487798      16.13124753      19.01617713        4
Cu      23.95232660      15.44474686      22.89425352        4
Cu      11.07303080      15.22859522      13.96551391        4
Cu      10.55441054      18.33827214      16.59307218        4
Cu      10.00000000      17.19415939      18.13683929        4
Cu      11.11697192      17.98746281      23.69091763        4
Cu      13.94006437      23.43668264      17.61776281        4
Cu      17.13440884      23.59959560      19.21014687        4
Cu      20.35513929      23.43082661      17.44880404        4
Cu      21.39054988      24.53121241      19.02439610        4
Cu      13.34530322      10.82337489      20.16259429        4
Cu      15.38674244      10.00000000      18.82713940        4
Cu      17.95785676      10.79419080      19.16595468        4
Cu      22.05524151      10.08495384      17.44478761        4
Cu      17.01967583      14.11417703      23.23230090        4
Cu      19.16033708      14.90102154      24.47634793        4
Cu      16.81135530      16.87999873      25.23186493        4
Cu      17.79535469      21.19091342      22.77527113        4
Cu      16.95367162      13.23150753      13.44498518        4
Cu      17.02319151      16.77664215      12.80077221        4
Cu      17.59211550      19.01952880      10.00000000        4
Cu      15.79202877      21.85301481      10.88905807        4
Cu      20.45097481      15.02331167      23.70848855        4
Cu      19.67381402      12.87154242      24.22851538        4
Cu      21.26831491      18.01234701      23.05465764        4
Cu      18.76250925      18.59503512      24.32046128        4
Cu      19.19230843      20.44963368      22.78355991        4
Cu      22.37787967      14.85892553      13.32021761        4
Cu      18.28581182      14.87706660      13.45592451        4
Cu      22.32890697      16.67543764      12.62693948        4
Cu      20.36202560      17.93688350      12.88540143        4
Cu      19.74533794      20.21195535      13.58802578        4
Cu      12.53263392      14.10896234      22.63119646        4
Cu      15.88307222      12.85468577      24.16843326        4
Cu      12.80648831      18.78434442      23.64263445        4
Cu      15.93579486      17.81053826      23.47878615        4
Cu      13.83070253      19.70525741      23.51301540        4
Cu      14.72389226      16.21803633      14.00195205        4
Cu      16.25800100      13.79118055      12.81583464        4
Cu      12.09749001      17.97349300      14.32381576        4
Cu      14.06384150      16.78826637      12.56971401        4
Cu      13.56898134      19.76325632      12.90678905        4
Cu      21.75707302      20.60932458      17.34064216        4
Cu      23.92903927      19.54052764      13.75130244        4
Cu      22.45152563      23.03124348      20.01196807        4
Cu      21.92909804      20.29614193      17.81382235        4
Cu      23.59712867      20.70642790      19.82344143        4
Cu      11.95506796      20.06202072      17.66771418        4
Cu      11.74611754      17.57953546      14.90021276        4
Cu      11.90243600      21.89931287      20.99019107        4
Cu      11.29987508      19.84962181      16.97671999        4
Cu      10.40793011      18.37713367      21.64362528        4
Cu      23.53175151      13.27207291      15.54271664        4
Cu      22.31433556      14.63342915      17.15134273        4
Cu      23.42331727      12.79547076      19.40427626        4
Cu      23.01306796      15.64167364      16.97687384        4
Cu      24.29576633      15.10197353      21.75075795        4
Cu      13.63912728      13.57508072      16.07168657        4
Cu      10.55261780      13.68535569      15.18401496        4
Cu      12.75291123      12.85167896      20.84654310        4
Cu      10.47125826      14.14120957      19.39998898        4
Cu      11.74921172      13.89900757      20.12994739        4
Cu      15.78911513      22.82286863      22.39989987        4
Cu      12.70673290      22.96741659      20.45022651        4
Cu      19.53266892      22.19512782      23.09609720        4
Cu      16.93571653      22.84946535      20.81811951        4
Cu      19.75761317      23.80700576      20.50314957        4
Cu      17.01613240      11.55987483      22.71558049        4
Cu      13.96188203      12.43926092      21.33091524        4
Cu      18.51982161      11.15616385      21.03907024        4
Cu      17.40851361      12.13706081      18.63943034        4
Cu      21.97939945      11.08866770      20.34255804        4
Cu      15.50233380      20.85861033      14.89583749        4
Cu      13.69638404      23.15210512      16.05739767        4
Cu      19.59625939      20.44810475      14.54851849        4
Cu      17.57680520      23.87364208      16.65681158        4
Cu      20.06432411      22.58711039      16.72208015        4
Cu      14.60361562      11.95788354      14.31160643        4
Cu      13.97927168      11.22446166      16.27988724        4
Cu      19.35384464      12.70515506      14.44137487        4
Cu      18.50047878      12.20384438      16.83287920        4
Cu      20.00349398      11.25615828      16.92961211        4
Cu      21.40604674      14.66263258      21.89207002        4
Cu      21.85931600      20.31393684      21.49471310        4
Cu      20.78576863      12.98065049      12.81595962        4
Cu      21.41997968      20.12944686      15.45955425        4
Cu      14.28691549      13.38223380      20.46105142        4
Cu      13.16994552      19.50921912      22.39066691        4
Cu      14.46167229      12.90443857      15.72874022        4
Cu      15.01350527      19.33368929      14.15071218        4
